data_stdin
_audit_creation_method 'critic2-4f1eba8'
_cell_length_a         3.7250000000
_cell_length_b         4.7730000000
_cell_length_c         4.9360000000
_cell_angle_alpha       107.0300
_cell_angle_beta       107.2300
_cell_angle_gamma       101.5700
_cell_volume            76.075755
_space_group_crystal_system triclinic
_space_group_IT_number 1
_space_group_name_H-M_alt 'P1'
_space_group_name_Hall 'P 1'
loop_
_space_group_symop_operation_xyz
  'x,y,z'
loop_
_atom_site_label
_atom_site_type_symbol
_atom_site_fract_x
_atom_site_fract_y
_atom_site_fract_z
C      C      0.97900000000000     0.94180000000000     0.53200000000000
N      N      0.13010000000000     0.10860000000000     0.82550000000000
N      N      0.36870000000000     0.38230000000000     0.87530000000000
N      N      0.35730000000000     0.37690000000000     0.60900000000000
N      N      0.11550000000000     0.10370000000000     0.38880000000000
H      H      0.80100000000000     0.75900000000000     0.43900000000000
H      H      0.07800000000000     0.06400000000000     0.95800000000000
