data_stdin
_audit_creation_method 'critic2-4f1eba8'
_cell_length_a        14.6000000000
_cell_length_b         7.7590000000
_cell_length_c         5.1420000000
_cell_angle_alpha        90.0000
_cell_angle_beta        93.2500
_cell_angle_gamma        90.0000
_cell_volume           581.556118
_space_group_crystal_system monoclinic
_space_group_IT_number 5
_space_group_name_H-M_alt 'C2'
_space_group_name_Hall 'C 2y'
loop_
_space_group_symop_operation_xyz
  'x,y,z'
  '-x,y,-z'
  '-1/2+x,-1/2+y,z'
  '-1/2-x,-1/2+y,-z'
loop_
_atom_site_label
_atom_site_type_symbol
_atom_site_fract_x
_atom_site_fract_y
_atom_site_fract_z
Ba     Ba     0.00000000000000     0.22180000000000     0.00000000000000
Sr     Sr     0.20450000000000     0.89650000000000     0.98250000000000
Mn     Mn     0.00000000000000     0.88900000000000     0.50000000000000
Mn     Mn     0.00000000000000     0.69500000000000     0.00000000000000
Si     Si     0.13090000000000     0.57200000000000     0.46200000000000
Si     Si     0.82640000000000     0.19400000000000     0.48700000000000
O      O      0.90300000000000     0.72300000000000     0.33500000000000
O      O      0.83600000000000     0.39900000000000     0.36900000000000
O      O      0.90400000000000     0.08400000000000     0.36600000000000
O      O      0.05900000000000     0.87400000000000     0.18600000000000
O      O      0.18100000000000     0.19100000000000     0.20600000000000
O      O      0.06200000000000     0.52000000000000     0.22000000000000
O      O      0.72800000000000     0.13900000000000     0.33300000000000
