data_convert
_cell_volume            89.536051
_symmetry_space_group_name_H-M 'P 1'
_symmetry_Int_Tables_number 1
loop_
_symmetry_equiv_pos_site_id
_symmetry_equiv_pos_as_xyz
1 x,y,z
_cell_length_a         3.8540000000
_cell_length_b         3.6760000000
_cell_length_c         6.3200000000
_cell_angle_alpha        90.0000
_cell_angle_beta        90.3100
_cell_angle_gamma        90.0000
_cell_formula_units_Z 1
loop_
_atom_site_label
_atom_site_type_symbol
_atom_site_fract_x
_atom_site_fract_y
_atom_site_fract_z
Na     Na     0.60500000000000     0.50000000000000     0.52700000000000
Na     Na     0.43400000000000     0.00000000000000     0.36200000000000
N      N      0.50000000000000     0.00000000000000     0.70300000000000
Li     Li     0.53800000000000     0.00000000000000     0.02800000000000
Li     Li     0.00000000000000     0.00000000000000     0.71700000000000
Na     Na     0.38300000000000     0.50000000000000     0.85700000000000
Li     Li     0.00000000000000     0.50000000000000     0.18100000000000
N      N      0.49800000000000     0.50000000000000     0.18600000000000
