data_convert
_cell_volume           841.954916
_symmetry_space_group_name_H-M 'P 1'
_symmetry_Int_Tables_number 1
loop_
_symmetry_equiv_pos_site_id
_symmetry_equiv_pos_as_xyz
1 x,y,z
_cell_length_a        10.8672313478
_cell_length_b        12.9331000000
_cell_length_c         9.6155000000
_cell_angle_alpha        90.0000
_cell_angle_beta       141.4637
_cell_angle_gamma        90.0000
_cell_formula_units_Z 1
loop_
_atom_site_label
_atom_site_type_symbol
_atom_site_fract_x
_atom_site_fract_y
_atom_site_fract_z
Ag     Ag     0.57710000000000     0.59590000000000     0.81420000000000
Ag     Ag     0.07710000000000     0.40410000000000     0.31420000000000
Ag     Ag     0.27380000000000     0.91390000000000     0.31540000000000
Ag     Ag     0.77380000000000     0.08610000000000     0.81540000000000
Ag     Ag     0.87760000000000     0.90710000000000     0.57070000000000
Ag     Ag     0.37760000000000     0.09290000000000     0.07070000000000
Ag     Ag     0.37070000000000     0.89290000000000     0.72820000000000
Ag     Ag     0.87070000000000     0.10710000000000     0.22820000000000
Ag     Ag     0.10440000000000     0.60590000000000     0.66940000000000
Ag     Ag     0.60440000000000     0.39410000000000     0.16940000000000
Ag     Ag     0.69280000000000     0.78980000000000     0.65430000000000
Ag     Ag     0.19280000000000     0.21020000000000     0.15430000000000
Ag     Ag     0.34820000000000     0.49270000000000     0.18690000000000
Ag     Ag     0.84820000000000     0.50730000000000     0.68690000000000
Ag     Ag     0.15200000000000     0.68680000000000     0.11300000000000
Ag     Ag     0.65200000000000     0.31320000000000     0.61300000000000
As     As     0.06140000000000     0.68540000000000     0.37390000000000
As     As     0.56140000000000     0.31460000000000     0.87390000000000
As     As     0.64870000000000     0.68170000000000     0.26650000000000
As     As     0.14870000000000     0.31830000000000     0.76650000000000
As     As     0.82010000000000     0.83090000000000     0.12970000000000
As     As     0.32010000000000     0.16910000000000     0.62970000000000
As     As     0.39650000000000     0.82160000000000     0.02250000000000
As     As     0.89650000000000     0.17840000000000     0.52250000000000
S      S      0.95000000000000     0.58130000000000     0.10300000000000
S      S      0.45000000000000     0.41870000000000     0.60300000000000
S      S      0.50010000000000     0.91870000000000     0.29190000000000
S      S      0.00010000000000     0.08130000000000     0.79190000000000
S      S      0.34270000000000     0.74550000000000     0.53510000000000
S      S      0.84270000000000     0.25450000000000     0.03510000000000
S      S      0.10840000000000     0.75060000000000     0.84170000000000
S      S      0.60840000000000     0.24940000000000     0.34170000000000
S      S      0.58510000000000     0.62910000000000     0.43250000000000
S      S      0.08510000000000     0.37090000000000     0.93250000000000
S      S      0.47760000000000     0.56720000000000     0.99180000000000
S      S      0.97760000000000     0.43280000000000     0.49180000000000
S      S      0.89570000000000     0.89570000000000     0.98730000000000
S      S      0.39570000000000     0.10430000000000     0.48730000000000
S      S      0.98800000000000     0.93600000000000     0.41520000000000
S      S      0.48800000000000     0.06400000000000     0.91520000000000
