data_convert
_cell_volume           841.954916
_symmetry_space_group_name_H-M 'P 1'
_symmetry_Int_Tables_number 1
loop_
_symmetry_equiv_pos_site_id
_symmetry_equiv_pos_as_xyz
1 x,y,z
_cell_length_a        12.9331000000
_cell_length_b         6.8616000000
_cell_length_c         9.6155000000
_cell_angle_alpha        99.3520
_cell_angle_beta        90.0000
_cell_angle_gamma        90.0000
_cell_formula_units_Z 1
loop_
_atom_site_label
_atom_site_type_symbol
_atom_site_fract_x
_atom_site_fract_y
_atom_site_fract_z
Ag     Ag     0.59590000000000     0.42290000000000     0.23710000000000
Ag     Ag     0.40410000000000     0.92290000000000     0.23710000000000
Ag     Ag     0.91390000000000     0.72620000000000     0.04160000000000
Ag     Ag     0.08610000000000     0.22620000000000     0.04160000000000
Ag     Ag     0.90710000000000     0.12240000000000     0.69310000000000
Ag     Ag     0.09290000000000     0.62240000000000     0.69310000000000
Ag     Ag     0.89290000000000     0.62930000000000     0.35750000000000
Ag     Ag     0.10710000000000     0.12930000000000     0.35750000000000
Ag     Ag     0.60590000000000     0.89560000000000     0.56500000000000
Ag     Ag     0.39410000000000     0.39560000000000     0.56500000000000
Ag     Ag     0.78980000000000     0.30720000000000     0.96150000000000
Ag     Ag     0.21020000000000     0.80720000000000     0.96150000000000
Ag     Ag     0.49270000000000     0.65180000000000     0.83870000000000
Ag     Ag     0.50730000000000     0.15180000000000     0.83870000000000
Ag     Ag     0.68680000000000     0.84800000000000     0.96100000000000
Ag     Ag     0.31320000000000     0.34800000000000     0.96100000000000
As     As     0.68540000000000     0.93860000000000     0.31250000000000
As     As     0.31460000000000     0.43860000000000     0.31250000000000
As     As     0.68170000000000     0.35130000000000     0.61780000000000
As     As     0.31830000000000     0.85130000000000     0.61780000000000
As     As     0.83090000000000     0.17990000000000     0.30960000000000
As     As     0.16910000000000     0.67990000000000     0.30960000000000
As     As     0.82160000000000     0.60350000000000     0.62600000000000
As     As     0.17840000000000     0.10350000000000     0.62600000000000
S      S      0.58130000000000     0.05000000000000     0.15300000000000
S      S      0.41870000000000     0.55000000000000     0.15300000000000
S      S      0.91870000000000     0.49990000000000     0.79180000000000
S      S      0.08130000000000     0.99990000000000     0.79180000000000
S      S      0.74550000000000     0.65730000000000     0.19240000000000
S      S      0.25450000000000     0.15730000000000     0.19240000000000
S      S      0.75060000000000     0.89160000000000     0.73330000000000
S      S      0.24940000000000     0.39160000000000     0.73330000000000
S      S      0.62910000000000     0.41490000000000     0.84740000000000
S      S      0.37090000000000     0.91490000000000     0.84740000000000
S      S      0.56720000000000     0.52240000000000     0.51420000000000
S      S      0.43280000000000     0.02240000000000     0.51420000000000
S      S      0.89570000000000     0.10430000000000     0.09160000000000
S      S      0.10430000000000     0.60430000000000     0.09160000000000
S      S      0.93600000000000     0.01200000000000     0.42720000000000
S      S      0.06400000000000     0.51200000000000     0.42720000000000
