data_stdin
_audit_creation_method 'critic2-4f1eba8'
_cell_length_a        12.9331000000
_cell_length_b         9.6155000000
_cell_length_c        10.8672313478
_cell_angle_alpha       141.4637
_cell_angle_beta        90.0000
_cell_angle_gamma        90.0000
_cell_volume           841.954597
_space_group_crystal_system monoclinic
_space_group_IT_number 7
_space_group_name_H-M_alt 'Pc'
_space_group_name_Hall 'P -2yc'
loop_
_space_group_symop_operation_xyz
  'x,y,z'
  '-x,-1/2+y,-1/2+z'
loop_
_atom_site_label
_atom_site_type_symbol
_atom_site_fract_x
_atom_site_fract_y
_atom_site_fract_z
Ag     Ag     0.59590000000000     0.81420000000000     0.57710000000000
Ag     Ag     0.91390000000000     0.31540000000000     0.27380000000000
Ag     Ag     0.90710000000000     0.57070000000000     0.87760000000000
Ag     Ag     0.89290000000000     0.72820000000000     0.37070000000000
Ag     Ag     0.60590000000000     0.66940000000000     0.10440000000000
Ag     Ag     0.78980000000000     0.65430000000000     0.69280000000000
Ag     Ag     0.49270000000000     0.18690000000000     0.34820000000000
Ag     Ag     0.68680000000000     0.11300000000000     0.15200000000000
As     As     0.68540000000000     0.37390000000000     0.06140000000000
As     As     0.68170000000000     0.26650000000000     0.64870000000000
As     As     0.83090000000000     0.12970000000000     0.82010000000000
As     As     0.82160000000000     0.02250000000000     0.39650000000000
S      S      0.58130000000000     0.10300000000000     0.95000000000000
S      S      0.91870000000000     0.29190000000000     0.50010000000000
S      S      0.74550000000000     0.53510000000000     0.34270000000000
S      S      0.75060000000000     0.84170000000000     0.10840000000000
S      S      0.62910000000000     0.43250000000000     0.58510000000000
S      S      0.56720000000000     0.99180000000000     0.47760000000000
S      S      0.89570000000000     0.98730000000000     0.89570000000000
S      S      0.93600000000000     0.41520000000000     0.98800000000000
