data_convert
_cell_volume           877.898524
_symmetry_space_group_name_H-M 'P 1'
_symmetry_Int_Tables_number 1
loop_
_symmetry_equiv_pos_site_id
_symmetry_equiv_pos_as_xyz
1 x,y,z
_cell_length_a         8.2810421532
_cell_length_b        13.0100000000
_cell_length_c        11.5100000000
_cell_angle_alpha        90.0000
_cell_angle_beta       134.9311
_cell_angle_gamma        90.0000
_cell_formula_units_Z 1
loop_
_atom_site_label
_atom_site_type_symbol
_atom_site_fract_x
_atom_site_fract_y
_atom_site_fract_z
U      U      0.00090000000000     0.27920000000000     0.04820000000000
U      U      0.00090000000000     0.77920000000000     0.54820000000000
U      U      0.00090000000000     0.72080000000000     0.04820000000000
U      U      0.00090000000000     0.22080000000000     0.54820000000000
P      P      0.76000000000000     0.11350000000000     0.16450000000000
P      P      0.76000000000000     0.61350000000000     0.66450000000000
P      P      0.76000000000000     0.88650000000000     0.16450000000000
P      P      0.76000000000000     0.38650000000000     0.66450000000000
P      P      0.53350000000000     0.11180000000000     0.69830000000000
P      P      0.53350000000000     0.61180000000000     0.19830000000000
P      P      0.53350000000000     0.88820000000000     0.69830000000000
P      P      0.53350000000000     0.38820000000000     0.19830000000000
P      P      0.47750000000000     0.11330000000000     0.40870000000000
P      P      0.47750000000000     0.61330000000000     0.90870000000000
P      P      0.47750000000000     0.88670000000000     0.40870000000000
P      P      0.47750000000000     0.38670000000000     0.90870000000000
P      P      0.25450000000000     0.11400000000000     0.94400000000000
P      P      0.25450000000000     0.61400000000000     0.44400000000000
P      P      0.25450000000000     0.88600000000000     0.94400000000000
P      P      0.25450000000000     0.38600000000000     0.44400000000000
O      O      0.12800000000000     0.15520000000000     0.99200000000000
O      O      0.12800000000000     0.65520000000000     0.49200000000000
O      O      0.12800000000000     0.84480000000000     0.99200000000000
O      O      0.12800000000000     0.34480000000000     0.49200000000000
O      O      0.33600000000000     0.19570000000000     0.32250000000000
O      O      0.33600000000000     0.69570000000000     0.82250000000000
O      O      0.33600000000000     0.80430000000000     0.32250000000000
O      O      0.33600000000000     0.30430000000000     0.82250000000000
O      O      0.81000000000000     0.29870000000000     0.61650000000000
O      O      0.81000000000000     0.79870000000000     0.11650000000000
O      O      0.81000000000000     0.70130000000000     0.61650000000000
O      O      0.81000000000000     0.20130000000000     0.11650000000000
O      O      0.69500000000000     0.18770000000000     0.84350000000000
O      O      0.69500000000000     0.68770000000000     0.34350000000000
O      O      0.69500000000000     0.81230000000000     0.84350000000000
O      O      0.69500000000000     0.31230000000000     0.34350000000000
O      O      0.24300000000000     0.00000000000000     0.98950000000000
O      O      0.24300000000000     0.50000000000000     0.48950000000000
O      O      0.40800000000000     0.00000000000000     0.34450000000000
O      O      0.40800000000000     0.50000000000000     0.84450000000000
O      O      0.68750000000000     0.11500000000000     0.43150000000000
O      O      0.68750000000000     0.61500000000000     0.93150000000000
O      O      0.68750000000000     0.88500000000000     0.43150000000000
O      O      0.68750000000000     0.38500000000000     0.93150000000000
O      O      0.63100000000000     0.00000000000000     0.77450000000000
O      O      0.63100000000000     0.50000000000000     0.27450000000000
O      O      0.29200000000000     0.13020000000000     0.59800000000000
O      O      0.29200000000000     0.63020000000000     0.09800000000000
O      O      0.29200000000000     0.86980000000000     0.59800000000000
O      O      0.29200000000000     0.36980000000000     0.09800000000000
O      O      0.60150000000000     0.10900000000000     0.60300000000000
O      O      0.60150000000000     0.60900000000000     0.10300000000000
O      O      0.60150000000000     0.89100000000000     0.60300000000000
O      O      0.60150000000000     0.39100000000000     0.10300000000000
O      O      0.11700000000000     0.11770000000000     0.76050000000000
O      O      0.11700000000000     0.61770000000000     0.26050000000000
O      O      0.11700000000000     0.88230000000000     0.76050000000000
O      O      0.11700000000000     0.38230000000000     0.26050000000000
O      O      0.91800000000000     0.12820000000000     0.34200000000000
O      O      0.91800000000000     0.62820000000000     0.84200000000000
O      O      0.91800000000000     0.87180000000000     0.34200000000000
O      O      0.91800000000000     0.37180000000000     0.84200000000000
O      O      0.50300000000000     0.14300000000000     0.09100000000000
O      O      0.50300000000000     0.64300000000000     0.59100000000000
O      O      0.50300000000000     0.85700000000000     0.09100000000000
O      O      0.50300000000000     0.35700000000000     0.59100000000000
O      O      0.72200000000000     0.00000000000000     0.10800000000000
O      O      0.72200000000000     0.50000000000000     0.60800000000000
