data_convert
_cell_volume           877.898524
_symmetry_space_group_name_H-M 'P 1'
_symmetry_Int_Tables_number 1
loop_
_symmetry_equiv_pos_site_id
_symmetry_equiv_pos_as_xyz
1 x,y,z
_cell_length_a         8.1500000000
_cell_length_b        13.0100000000
_cell_length_c         8.2810421532
_cell_angle_alpha        90.0000
_cell_angle_beta        91.0689
_cell_angle_gamma        90.0000
_cell_formula_units_Z 1
loop_
_atom_site_label
_atom_site_type_symbol
_atom_site_fract_x
_atom_site_fract_y
_atom_site_fract_z
U      U      0.95180000000000     0.27920000000000     0.95270000000000
U      U      0.45180000000000     0.77920000000000     0.45270000000000
U      U      0.95180000000000     0.72080000000000     0.95270000000000
U      U      0.45180000000000     0.22080000000000     0.45270000000000
P      P      0.83550000000000     0.11350000000000     0.59550000000000
P      P      0.33550000000000     0.61350000000000     0.09550000000000
P      P      0.83550000000000     0.88650000000000     0.59550000000000
P      P      0.33550000000000     0.38650000000000     0.09550000000000
P      P      0.30170000000000     0.11180000000000     0.83520000000000
P      P      0.80170000000000     0.61180000000000     0.33520000000000
P      P      0.30170000000000     0.88820000000000     0.83520000000000
P      P      0.80170000000000     0.38820000000000     0.33520000000000
P      P      0.59130000000000     0.11330000000000     0.06880000000000
P      P      0.09130000000000     0.61330000000000     0.56880000000000
P      P      0.59130000000000     0.88670000000000     0.06880000000000
P      P      0.09130000000000     0.38670000000000     0.56880000000000
P      P      0.05600000000000     0.11400000000000     0.31050000000000
P      P      0.55600000000000     0.61400000000000     0.81050000000000
P      P      0.05600000000000     0.88600000000000     0.31050000000000
P      P      0.55600000000000     0.38600000000000     0.81050000000000
O      O      0.00800000000000     0.15520000000000     0.13600000000000
O      O      0.50800000000000     0.65520000000000     0.63600000000000
O      O      0.00800000000000     0.84480000000000     0.13600000000000
O      O      0.50800000000000     0.34480000000000     0.63600000000000
O      O      0.67750000000000     0.19570000000000     0.01350000000000
O      O      0.17750000000000     0.69570000000000     0.51350000000000
O      O      0.67750000000000     0.80430000000000     0.01350000000000
O      O      0.17750000000000     0.30430000000000     0.51350000000000
O      O      0.38350000000000     0.29870000000000     0.19350000000000
O      O      0.88350000000000     0.79870000000000     0.69350000000000
O      O      0.38350000000000     0.70130000000000     0.19350000000000
O      O      0.88350000000000     0.20130000000000     0.69350000000000
O      O      0.15650000000000     0.18770000000000     0.85150000000000
O      O      0.65650000000000     0.68770000000000     0.35150000000000
O      O      0.15650000000000     0.81230000000000     0.85150000000000
O      O      0.65650000000000     0.31230000000000     0.35150000000000
O      O      0.01050000000000     0.00000000000000     0.25350000000000
O      O      0.51050000000000     0.50000000000000     0.75350000000000
O      O      0.65550000000000     0.00000000000000     0.06350000000000
O      O      0.15550000000000     0.50000000000000     0.56350000000000
O      O      0.56850000000000     0.11500000000000     0.25600000000000
O      O      0.06850000000000     0.61500000000000     0.75600000000000
O      O      0.56850000000000     0.88500000000000     0.25600000000000
O      O      0.06850000000000     0.38500000000000     0.75600000000000
O      O      0.22550000000000     0.00000000000000     0.85650000000000
O      O      0.72550000000000     0.50000000000000     0.35650000000000
O      O      0.40200000000000     0.13020000000000     0.69400000000000
O      O      0.90200000000000     0.63020000000000     0.19400000000000
O      O      0.40200000000000     0.86980000000000     0.69400000000000
O      O      0.90200000000000     0.36980000000000     0.19400000000000
O      O      0.39700000000000     0.10900000000000     0.99850000000000
O      O      0.89700000000000     0.60900000000000     0.49850000000000
O      O      0.39700000000000     0.89100000000000     0.99850000000000
O      O      0.89700000000000     0.39100000000000     0.49850000000000
O      O      0.23950000000000     0.11770000000000     0.35650000000000
O      O      0.73950000000000     0.61770000000000     0.85650000000000
O      O      0.23950000000000     0.88230000000000     0.35650000000000
O      O      0.73950000000000     0.38230000000000     0.85650000000000
O      O      0.65800000000000     0.12820000000000     0.57600000000000
O      O      0.15800000000000     0.62820000000000     0.07600000000000
O      O      0.65800000000000     0.87180000000000     0.57600000000000
O      O      0.15800000000000     0.37180000000000     0.07600000000000
O      O      0.90900000000000     0.14300000000000     0.41200000000000
O      O      0.40900000000000     0.64300000000000     0.91200000000000
O      O      0.90900000000000     0.85700000000000     0.41200000000000
O      O      0.40900000000000     0.35700000000000     0.91200000000000
O      O      0.89200000000000     0.00000000000000     0.61400000000000
O      O      0.39200000000000     0.50000000000000     0.11400000000000
