data_convert
_cell_volume           877.898524
_symmetry_space_group_name_H-M 'P 1'
_symmetry_Int_Tables_number 1
loop_
_symmetry_equiv_pos_site_id
_symmetry_equiv_pos_as_xyz
1 x,y,z
_cell_length_a         8.1500000000
_cell_length_b        11.5100000000
_cell_length_c        13.0100000000
_cell_angle_alpha        90.0000
_cell_angle_beta        90.0000
_cell_angle_gamma       134.0000
_cell_formula_units_Z 1
loop_
_atom_site_label
_atom_site_type_symbol
_atom_site_fract_x
_atom_site_fract_y
_atom_site_fract_z
U      U      0.99910000000000     0.04730000000000     0.27920000000000
U      U      0.99910000000000     0.54730000000000     0.77920000000000
U      U      0.99910000000000     0.04730000000000     0.72080000000000
U      U      0.99910000000000     0.54730000000000     0.22080000000000
P      P      0.24000000000000     0.40450000000000     0.11350000000000
P      P      0.24000000000000     0.90450000000000     0.61350000000000
P      P      0.24000000000000     0.40450000000000     0.88650000000000
P      P      0.24000000000000     0.90450000000000     0.38650000000000
P      P      0.46650000000000     0.16480000000000     0.11180000000000
P      P      0.46650000000000     0.66480000000000     0.61180000000000
P      P      0.46650000000000     0.16480000000000     0.88820000000000
P      P      0.46650000000000     0.66480000000000     0.38820000000000
P      P      0.52250000000000     0.93120000000000     0.11330000000000
P      P      0.52250000000000     0.43120000000000     0.61330000000000
P      P      0.52250000000000     0.93120000000000     0.88670000000000
P      P      0.52250000000000     0.43120000000000     0.38670000000000
P      P      0.74550000000000     0.68950000000000     0.11400000000000
P      P      0.74550000000000     0.18950000000000     0.61400000000000
P      P      0.74550000000000     0.68950000000000     0.88600000000000
P      P      0.74550000000000     0.18950000000000     0.38600000000000
O      O      0.87200000000000     0.86400000000000     0.15520000000000
O      O      0.87200000000000     0.36400000000000     0.65520000000000
O      O      0.87200000000000     0.86400000000000     0.84480000000000
O      O      0.87200000000000     0.36400000000000     0.34480000000000
O      O      0.66400000000000     0.98650000000000     0.19570000000000
O      O      0.66400000000000     0.48650000000000     0.69570000000000
O      O      0.66400000000000     0.98650000000000     0.80430000000000
O      O      0.66400000000000     0.48650000000000     0.30430000000000
O      O      0.19000000000000     0.80650000000000     0.29870000000000
O      O      0.19000000000000     0.30650000000000     0.79870000000000
O      O      0.19000000000000     0.80650000000000     0.70130000000000
O      O      0.19000000000000     0.30650000000000     0.20130000000000
O      O      0.30500000000000     0.14850000000000     0.18770000000000
O      O      0.30500000000000     0.64850000000000     0.68770000000000
O      O      0.30500000000000     0.14850000000000     0.81230000000000
O      O      0.30500000000000     0.64850000000000     0.31230000000000
O      O      0.75700000000000     0.74650000000000     0.00000000000000
O      O      0.75700000000000     0.24650000000000     0.50000000000000
O      O      0.59200000000000     0.93650000000000     0.00000000000000
O      O      0.59200000000000     0.43650000000000     0.50000000000000
O      O      0.31250000000000     0.74400000000000     0.11500000000000
O      O      0.31250000000000     0.24400000000000     0.61500000000000
O      O      0.31250000000000     0.74400000000000     0.88500000000000
O      O      0.31250000000000     0.24400000000000     0.38500000000000
O      O      0.36900000000000     0.14350000000000     0.00000000000000
O      O      0.36900000000000     0.64350000000000     0.50000000000000
O      O      0.70800000000000     0.30600000000000     0.13020000000000
O      O      0.70800000000000     0.80600000000000     0.63020000000000
O      O      0.70800000000000     0.30600000000000     0.86980000000000
O      O      0.70800000000000     0.80600000000000     0.36980000000000
O      O      0.39850000000000     0.00150000000000     0.10900000000000
O      O      0.39850000000000     0.50150000000000     0.60900000000000
O      O      0.39850000000000     0.00150000000000     0.89100000000000
O      O      0.39850000000000     0.50150000000000     0.39100000000000
O      O      0.88300000000000     0.64350000000000     0.11770000000000
O      O      0.88300000000000     0.14350000000000     0.61770000000000
O      O      0.88300000000000     0.64350000000000     0.88230000000000
O      O      0.88300000000000     0.14350000000000     0.38230000000000
O      O      0.08200000000000     0.42400000000000     0.12820000000000
O      O      0.08200000000000     0.92400000000000     0.62820000000000
O      O      0.08200000000000     0.42400000000000     0.87180000000000
O      O      0.08200000000000     0.92400000000000     0.37180000000000
O      O      0.49700000000000     0.58800000000000     0.14300000000000
O      O      0.49700000000000     0.08800000000000     0.64300000000000
O      O      0.49700000000000     0.58800000000000     0.85700000000000
O      O      0.49700000000000     0.08800000000000     0.35700000000000
O      O      0.27800000000000     0.38600000000000     0.00000000000000
O      O      0.27800000000000     0.88600000000000     0.50000000000000
