data_convert
_cell_volume           387.447327
_symmetry_space_group_name_H-M 'P 1'
_symmetry_Int_Tables_number 1
loop_
_symmetry_equiv_pos_site_id
_symmetry_equiv_pos_as_xyz
1 x,y,z
_cell_length_a         6.6880000000
_cell_length_b         7.5700000000
_cell_length_c         8.9440000000
_cell_angle_alpha        90.0000
_cell_angle_beta        90.0000
_cell_angle_gamma       121.1700
_cell_formula_units_Z 1
loop_
_atom_site_label
_atom_site_type_symbol
_atom_site_fract_x
_atom_site_fract_y
_atom_site_fract_z
As     As     0.00000000000000     0.25000000000000     0.57070000000000
As     As     0.50000000000000     0.25000000000000     0.07070000000000
As     As     0.00000000000000     0.75000000000000     0.42930000000000
As     As     0.50000000000000     0.75000000000000     0.92930000000000
Ca     Ca     0.48670000000000     0.23920000000000     0.41830000000000
Ca     Ca     0.98670000000000     0.23920000000000     0.91830000000000
Ca     Ca     0.48670000000000     0.73920000000000     0.58170000000000
Ca     Ca     0.98670000000000     0.73920000000000     0.08170000000000
Mg     Mg     0.25200000000000     0.50000000000000     0.25300000000000
Mg     Mg     0.75200000000000     0.50000000000000     0.75300000000000
Mg     Mg     0.25200000000000     0.00000000000000     0.74700000000000
Mg     Mg     0.75200000000000     0.00000000000000     0.24700000000000
O      O      0.01200000000000     0.07600000000000     0.68900000000000
O      O      0.51200000000000     0.07600000000000     0.18900000000000
O      O      0.01200000000000     0.57600000000000     0.31100000000000
O      O      0.51200000000000     0.57600000000000     0.81100000000000
O      O      0.26300000000000     0.62600000000000     0.03300000000000
O      O      0.76300000000000     0.62600000000000     0.53300000000000
O      O      0.26300000000000     0.12600000000000     0.96700000000000
O      O      0.76300000000000     0.12600000000000     0.46700000000000
O      O      0.24800000000000     0.38200000000000     0.46300000000000
O      O      0.74800000000000     0.38200000000000     0.96300000000000
O      O      0.24800000000000     0.88200000000000     0.53700000000000
O      O      0.74800000000000     0.88200000000000     0.03700000000000
O      O      0.00100000000000     0.42200000000000     0.68400000000000
O      O      0.50100000000000     0.42200000000000     0.18400000000000
O      O      0.00100000000000     0.92200000000000     0.31600000000000
O      O      0.50100000000000     0.92200000000000     0.81600000000000
F      F      0.50800000000000     0.24700000000000     0.66700000000000
F      F      0.00800000000000     0.24700000000000     0.16700000000000
F      F      0.50800000000000     0.74700000000000     0.33300000000000
F      F      0.00800000000000     0.74700000000000     0.83300000000000
