data_convert
_cell_volume           168.395623
_symmetry_space_group_name_H-M 'P 1'
_symmetry_Int_Tables_number 1
loop_
_symmetry_equiv_pos_site_id
_symmetry_equiv_pos_as_xyz
1 x,y,z
_cell_length_a         5.1240000000
_cell_length_b         4.4190000000
_cell_length_c         7.4370000000
_cell_angle_alpha        90.0000
_cell_angle_beta        89.9600
_cell_angle_gamma        90.0000
_cell_formula_units_Z 1
loop_
_atom_site_label
_atom_site_type_symbol
_atom_site_fract_x
_atom_site_fract_y
_atom_site_fract_z
Au     Au     0.00000000000000     0.00000000000000     0.00000000000000
Au     Au     0.00000000000000     0.00000000000000     0.50000000000000
Ag     Ag     0.50000000000000     0.50000000000000     0.00000000000000
Ag     Ag     0.50000000000000     0.50000000000000     0.50000000000000
Te     Te     0.62770000000000     0.00000000000000     0.25090000000000
Te     Te     0.37230000000000     0.00000000000000     0.74910000000000
Te     Te     0.10890000000000     0.50000000000000     0.25820000000000
Te     Te     0.89110000000000     0.50000000000000     0.74180000000000
