data_convert
_cell_volume           506.397330
_symmetry_space_group_name_H-M 'P 1'
_symmetry_Int_Tables_number 1
loop_
_symmetry_equiv_pos_site_id
_symmetry_equiv_pos_as_xyz
1 x,y,z
_cell_length_a         5.6550000000
_cell_length_b         6.9910000000
_cell_length_c        12.8840000000
_cell_angle_alpha        90.0000
_cell_angle_beta        90.0000
_cell_angle_gamma        96.1800
_cell_formula_units_Z 1
loop_
_atom_site_label
_atom_site_type_symbol
_atom_site_fract_x
_atom_site_fract_y
_atom_site_fract_z
Cu     Cu     0.21790000000000     0.48190000000000     0.25000000000000
Cu     Cu     0.78210000000000     0.51810000000000     0.75000000000000
Cu     Cu     0.71390000000000     0.48840000000000     0.25000000000000
Cu     Cu     0.28610000000000     0.51160000000000     0.75000000000000
Ca     Ca     0.02690000000000     0.84610000000000     0.10610000000000
Ca     Ca     0.02690000000000     0.84610000000000     0.39390000000000
Ca     Ca     0.97310000000000     0.15390000000000     0.60610000000000
Ca     Ca     0.97310000000000     0.15390000000000     0.89390000000000
Si     Si     0.45180000000000     0.23370000000000     0.08030000000000
Si     Si     0.45180000000000     0.23370000000000     0.41970000000000
Si     Si     0.54820000000000     0.76630000000000     0.58030000000000
Si     Si     0.54820000000000     0.76630000000000     0.91970000000000
Si     Si     0.54770000000000     0.94320000000000     0.25000000000000
Si     Si     0.45230000000000     0.05680000000000     0.75000000000000
O      O      0.76240000000000     0.81070000000000     0.25000000000000
O      O      0.23760000000000     0.18930000000000     0.75000000000000
O      O      0.59010000000000     0.08470000000000     0.14850000000000
O      O      0.59010000000000     0.08470000000000     0.35150000000000
O      O      0.40990000000000     0.91530000000000     0.64850000000000
O      O      0.40990000000000     0.91530000000000     0.85150000000000
O      O      0.45730000000000     0.43480000000000     0.14750000000000
O      O      0.45730000000000     0.43480000000000     0.35250000000000
O      O      0.54270000000000     0.56520000000000     0.64750000000000
O      O      0.54270000000000     0.56520000000000     0.85250000000000
O      O      0.28470000000000     0.83440000000000     0.25000000000000
O      O      0.71530000000000     0.16560000000000     0.75000000000000
O      O      0.18670000000000     0.15390000000000     0.04980000000000
O      O      0.18670000000000     0.15390000000000     0.45020000000000
O      O      0.81330000000000     0.84610000000000     0.54980000000000
O      O      0.81330000000000     0.84610000000000     0.95020000000000
O      O      0.36760000000000     0.72010000000000     0.01890000000000
O      O      0.36760000000000     0.72010000000000     0.48110000000000
O      O      0.63240000000000     0.27990000000000     0.51890000000000
O      O      0.63240000000000     0.27990000000000     0.98110000000000
O      O      0.97140000000000     0.50730000000000     0.14750000000000
O      O      0.97140000000000     0.50730000000000     0.35250000000000
O      O      0.02860000000000     0.49270000000000     0.64750000000000
O      O      0.02860000000000     0.49270000000000     0.85250000000000
H      H      0.98000000000000     0.40000000000000     0.08000000000000
H      H      0.98000000000000     0.40000000000000     0.42000000000000
H      H      0.02000000000000     0.60000000000000     0.58000000000000
H      H      0.02000000000000     0.60000000000000     0.92000000000000
H      H      0.80000000000000     0.62000000000000     0.14000000000000
H      H      0.80000000000000     0.62000000000000     0.36000000000000
H      H      0.20000000000000     0.38000000000000     0.64000000000000
H      H      0.20000000000000     0.38000000000000     0.86000000000000
