data_convert
_cell_volume           423.951644
_symmetry_space_group_name_H-M 'P 1'
_symmetry_Int_Tables_number 1
loop_
_symmetry_equiv_pos_site_id
_symmetry_equiv_pos_as_xyz
1 x,y,z
_cell_length_a        11.7514000000
_cell_length_b         5.1396000000
_cell_length_c         7.6280971405
_cell_angle_alpha        90.0000
_cell_angle_beta       113.0450
_cell_angle_gamma        90.0000
_cell_formula_units_Z 1
loop_
_atom_site_label
_atom_site_type_symbol
_atom_site_fract_x
_atom_site_fract_y
_atom_site_fract_z
Li     Li     0.75000000000000     0.75800000000000     0.50000000000000
Li     Li     0.25000000000000     0.24200000000000     0.50000000000000
Al     Al     0.75000000000000     0.25600000000000     0.50000000000000
Al     Al     0.25000000000000     0.74400000000000     0.50000000000000
Si     Si     0.00250000000000     0.01250000000000     0.21130000000000
Si     Si     0.50250000000000     0.98750000000000     0.21130000000000
Si     Si     0.49750000000000     0.01250000000000     0.78870000000000
Si     Si     0.99750000000000     0.98750000000000     0.78870000000000
Si     Si     0.85220000000000     0.50970000000000     0.21000000000000
Si     Si     0.35220000000000     0.49030000000000     0.21000000000000
Si     Si     0.64780000000000     0.50970000000000     0.79000000000000
Si     Si     0.14780000000000     0.49030000000000     0.79000000000000
O      O      0.13980000000000     0.96350000000000     0.36760000000000
O      O      0.63980000000000     0.03650000000000     0.36760000000000
O      O      0.36020000000000     0.96350000000000     0.63240000000000
O      O      0.86020000000000     0.03650000000000     0.63240000000000
O      O      0.90740000000000     0.80110000000000     0.23140000000000
O      O      0.40740000000000     0.19890000000000     0.23140000000000
O      O      0.59260000000000     0.80110000000000     0.76860000000000
O      O      0.09260000000000     0.19890000000000     0.76860000000000
O      O      0.00000000000000     0.00000000000000     0.00000000000000
O      O      0.50000000000000     0.00000000000000     0.00000000000000
O      O      0.96050000000000     0.30200000000000     0.24610000000000
O      O      0.46050000000000     0.69800000000000     0.24610000000000
O      O      0.53950000000000     0.30200000000000     0.75390000000000
O      O      0.03950000000000     0.69800000000000     0.75390000000000
O      O      0.75000000000000     0.46410000000000     0.00000000000000
O      O      0.25000000000000     0.53590000000000     0.00000000000000
O      O      0.79150000000000     0.47640000000000     0.36350000000000
O      O      0.29150000000000     0.52360000000000     0.36350000000000
O      O      0.70850000000000     0.47640000000000     0.63650000000000
O      O      0.20850000000000     0.52360000000000     0.63650000000000
