data_stdin
_audit_creation_method 'critic2-4f1eba8'
_cell_length_a        11.7514000000
_cell_length_b        11.2295500000
_cell_length_c         5.1396000000
_cell_angle_alpha        90.0000
_cell_angle_beta        90.0000
_cell_angle_gamma       141.3120
_cell_volume           423.951644
_space_group_crystal_system monoclinic
_space_group_IT_number 13
_space_group_name_H-M_alt 'P2/c'
_space_group_name_Hall '-P 2yc'
loop_
_space_group_symop_operation_xyz
  'x,y,z'
  '-x,-y,-z'
  '-1/2-x,-y,z'
  '-1/2+x,y,-z'
loop_
_atom_site_label
_atom_site_type_symbol
_atom_site_fract_x
_atom_site_fract_y
_atom_site_fract_z
Li     Li     0.25000000000000     0.50000000000000     0.75800000000000
Al     Al     0.25000000000000     0.50000000000000     0.25600000000000
Si     Si     0.79120000000000     0.78870000000000     0.01250000000000
Si     Si     0.64220000000000     0.79000000000000     0.50970000000000
O      O      0.77220000000000     0.63240000000000     0.96350000000000
O      O      0.67600000000000     0.76860000000000     0.80110000000000
O      O      0.00000000000000     0.00000000000000     0.00000000000000
O      O      0.71440000000000     0.75390000000000     0.30200000000000
O      O      0.75000000000000     0.00000000000000     0.46410000000000
O      O      0.42800000000000     0.63650000000000     0.47640000000000
