data_convert
_cell_volume           423.951644
_symmetry_space_group_name_H-M 'P 1'
_symmetry_Int_Tables_number 1
loop_
_symmetry_equiv_pos_site_id
_symmetry_equiv_pos_as_xyz
1 x,y,z
_cell_length_a         5.1396000000
_cell_length_b        11.7514000000
_cell_length_c        11.2295500000
_cell_angle_alpha       141.3120
_cell_angle_beta        90.0000
_cell_angle_gamma        90.0000
_cell_formula_units_Z 1
loop_
_atom_site_label
_atom_site_type_symbol
_atom_site_fract_x
_atom_site_fract_y
_atom_site_fract_z
Li     Li     0.75800000000000     0.25000000000000     0.50000000000000
Li     Li     0.24200000000000     0.75000000000000     0.50000000000000
Al     Al     0.25600000000000     0.25000000000000     0.50000000000000
Al     Al     0.74400000000000     0.75000000000000     0.50000000000000
Si     Si     0.01250000000000     0.79120000000000     0.78870000000000
Si     Si     0.98750000000000     0.29120000000000     0.78870000000000
Si     Si     0.01250000000000     0.70880000000000     0.21130000000000
Si     Si     0.98750000000000     0.20880000000000     0.21130000000000
Si     Si     0.50970000000000     0.64220000000000     0.79000000000000
Si     Si     0.49030000000000     0.14220000000000     0.79000000000000
Si     Si     0.50970000000000     0.85780000000000     0.21000000000000
Si     Si     0.49030000000000     0.35780000000000     0.21000000000000
O      O      0.96350000000000     0.77220000000000     0.63240000000000
O      O      0.03650000000000     0.27220000000000     0.63240000000000
O      O      0.96350000000000     0.72780000000000     0.36760000000000
O      O      0.03650000000000     0.22780000000000     0.36760000000000
O      O      0.80110000000000     0.67600000000000     0.76860000000000
O      O      0.19890000000000     0.17600000000000     0.76860000000000
O      O      0.80110000000000     0.82400000000000     0.23140000000000
O      O      0.19890000000000     0.32400000000000     0.23140000000000
O      O      0.00000000000000     0.00000000000000     0.00000000000000
O      O      0.00000000000000     0.50000000000000     0.00000000000000
O      O      0.30200000000000     0.71440000000000     0.75390000000000
O      O      0.69800000000000     0.21440000000000     0.75390000000000
O      O      0.30200000000000     0.78560000000000     0.24610000000000
O      O      0.69800000000000     0.28560000000000     0.24610000000000
O      O      0.46410000000000     0.75000000000000     0.00000000000000
O      O      0.53590000000000     0.25000000000000     0.00000000000000
O      O      0.47640000000000     0.42800000000000     0.63650000000000
O      O      0.52360000000000     0.92800000000000     0.63650000000000
O      O      0.47640000000000     0.07200000000000     0.36350000000000
O      O      0.52360000000000     0.57200000000000     0.36350000000000
