data_stdin
_audit_creation_method 'critic2-4f1eba8'
_cell_length_a         5.1200000000
_cell_length_b         5.2160000000
_cell_length_c         5.2810000000
_cell_angle_alpha        90.0000
_cell_angle_beta        99.0100
_cell_angle_gamma        90.0000
_cell_volume           139.293749
_space_group_crystal_system monoclinic
_space_group_IT_number 14
_space_group_name_H-M_alt 'P2_1/c'
_space_group_name_Hall '-P 2ybc'
loop_
_space_group_symop_operation_xyz
  'x,y,z'
  '-x,-y,-z'
  '-x,-1/2+y,-1/2-z'
  'x,-1/2-y,-1/2+z'
loop_
_atom_site_label
_atom_site_type_symbol
_atom_site_fract_x
_atom_site_fract_y
_atom_site_fract_z
Zr     Zr     0.27540000000000     0.03950000000000     0.20860000000000
O      O      0.07100000000000     0.33960000000000     0.33800000000000
O      O      0.45510000000000     0.76070000000000     0.48550000000000
