data_convert
_cell_volume           139.293749
_symmetry_space_group_name_H-M 'P 1'
_symmetry_Int_Tables_number 1
loop_
_symmetry_equiv_pos_site_id
_symmetry_equiv_pos_as_xyz
1 x,y,z
_cell_length_a         5.2810000000
_cell_length_b         5.2160000000
_cell_length_c         6.7553285367
_cell_angle_alpha        90.0000
_cell_angle_beta       131.5335
_cell_angle_gamma        90.0000
_cell_formula_units_Z 1
loop_
_atom_site_label
_atom_site_type_symbol
_atom_site_fract_x
_atom_site_fract_y
_atom_site_fract_z
Zr     Zr     0.93320000000000     0.03950000000000     0.72460000000000
Zr     Zr     0.43320000000000     0.46050000000000     0.72460000000000
Zr     Zr     0.56680000000000     0.53950000000000     0.27540000000000
Zr     Zr     0.06680000000000     0.96050000000000     0.27540000000000
O      O      0.26700000000000     0.33960000000000     0.92900000000000
O      O      0.76700000000000     0.16040000000000     0.92900000000000
O      O      0.23300000000000     0.83960000000000     0.07100000000000
O      O      0.73300000000000     0.66040000000000     0.07100000000000
O      O      0.03040000000000     0.76070000000000     0.54490000000000
O      O      0.53040000000000     0.73930000000000     0.54490000000000
O      O      0.46960000000000     0.26070000000000     0.45510000000000
O      O      0.96960000000000     0.23930000000000     0.45510000000000
