data_convert
_cell_volume           139.293749
_symmetry_space_group_name_H-M 'P 1'
_symmetry_Int_Tables_number 1
loop_
_symmetry_equiv_pos_site_id
_symmetry_equiv_pos_as_xyz
1 x,y,z
_cell_length_a         5.2160000000
_cell_length_b         5.2810000000
_cell_length_c         5.1200000000
_cell_angle_alpha        99.0100
_cell_angle_beta        90.0000
_cell_angle_gamma        90.0000
_cell_formula_units_Z 1
loop_
_atom_site_label
_atom_site_type_symbol
_atom_site_fract_x
_atom_site_fract_y
_atom_site_fract_z
Zr     Zr     0.03950000000000     0.20860000000000     0.27540000000000
Zr     Zr     0.46050000000000     0.70860000000000     0.27540000000000
Zr     Zr     0.53950000000000     0.29140000000000     0.72460000000000
Zr     Zr     0.96050000000000     0.79140000000000     0.72460000000000
O      O      0.33960000000000     0.33800000000000     0.07100000000000
O      O      0.16040000000000     0.83800000000000     0.07100000000000
O      O      0.83960000000000     0.16200000000000     0.92900000000000
O      O      0.66040000000000     0.66200000000000     0.92900000000000
O      O      0.76070000000000     0.48550000000000     0.45510000000000
O      O      0.73930000000000     0.98550000000000     0.45510000000000
O      O      0.26070000000000     0.01450000000000     0.54490000000000
O      O      0.23930000000000     0.51450000000000     0.54490000000000
