data_stdin
_audit_creation_method 'critic2-4f1eba8'
_cell_length_a         5.2160000000
_cell_length_b         5.1200000000
_cell_length_c         6.7553285367
_cell_angle_alpha       129.4565
_cell_angle_beta        90.0000
_cell_angle_gamma        90.0000
_cell_volume           139.293762
_space_group_crystal_system monoclinic
_space_group_IT_number 14
_space_group_name_H-M_alt 'P2_1/c'
_space_group_name_Hall '-P 2ybc'
loop_
_space_group_symop_operation_xyz
  'x,y,z'
  '-x,-y,-z'
  '-1/2+x,-1/2-y,-1/2-z'
  '-1/2-x,-1/2+y,-1/2+z'
loop_
_atom_site_label
_atom_site_type_symbol
_atom_site_fract_x
_atom_site_fract_y
_atom_site_fract_z
Zr     Zr     0.03950000000000     0.06680000000000     0.79140000000000
O      O      0.33960000000000     0.73300000000000     0.66200000000000
O      O      0.76070000000000     0.96960000000000     0.51450000000000
