data_convert
_cell_volume           546.439087
_symmetry_space_group_name_H-M 'P 1'
_symmetry_Int_Tables_number 1
loop_
_symmetry_equiv_pos_site_id
_symmetry_equiv_pos_as_xyz
1 x,y,z
_cell_length_a         7.1178767061
_cell_length_b        12.3692000000
_cell_length_c         7.1356000000
_cell_angle_alpha        90.0000
_cell_angle_beta       119.5646
_cell_angle_gamma        90.0000
_cell_formula_units_Z 1
loop_
_atom_site_label
_atom_site_type_symbol
_atom_site_fract_x
_atom_site_fract_y
_atom_site_fract_z
Si     Si     0.92773000000000     0.10833000000000     0.06806000000000
Si     Si     0.92773000000000     0.60833000000000     0.56806000000000
Si     Si     0.42773000000000     0.89167000000000     0.56806000000000
Si     Si     0.42773000000000     0.39167000000000     0.06806000000000
Si     Si     0.57227000000000     0.10833000000000     0.43194000000000
Si     Si     0.57227000000000     0.60833000000000     0.93194000000000
Si     Si     0.07227000000000     0.89167000000000     0.93194000000000
Si     Si     0.07227000000000     0.39167000000000     0.43194000000000
Si     Si     0.45923000000000     0.15799000000000     0.96605000000000
Si     Si     0.45923000000000     0.65799000000000     0.46605000000000
Si     Si     0.95923000000000     0.84201000000000     0.46605000000000
Si     Si     0.95923000000000     0.34201000000000     0.96605000000000
Si     Si     0.04077000000000     0.15799000000000     0.53395000000000
Si     Si     0.04077000000000     0.65799000000000     0.03395000000000
Si     Si     0.54077000000000     0.84201000000000     0.03395000000000
Si     Si     0.54077000000000     0.34201000000000     0.53395000000000
O      O      0.00000000000000     0.00000000000000     0.00000000000000
O      O      0.00000000000000     0.50000000000000     0.50000000000000
O      O      0.50000000000000     0.00000000000000     0.50000000000000
O      O      0.50000000000000     0.50000000000000     0.00000000000000
O      O      0.25000000000000     0.11630000000000     0.75000000000000
O      O      0.25000000000000     0.61630000000000     0.25000000000000
O      O      0.75000000000000     0.88370000000000     0.25000000000000
O      O      0.75000000000000     0.38370000000000     0.75000000000000
O      O      0.05990000000000     0.12340000000000     0.32590000000000
O      O      0.05990000000000     0.62340000000000     0.82590000000000
O      O      0.55990000000000     0.87660000000000     0.82590000000000
O      O      0.55990000000000     0.37660000000000     0.32590000000000
O      O      0.44010000000000     0.12340000000000     0.17410000000000
O      O      0.44010000000000     0.62340000000000     0.67410000000000
O      O      0.94010000000000     0.87660000000000     0.67410000000000
O      O      0.94010000000000     0.37660000000000     0.17410000000000
O      O      0.67180000000000     0.10380000000000     0.98320000000000
O      O      0.67180000000000     0.60380000000000     0.48320000000000
O      O      0.17180000000000     0.89620000000000     0.48320000000000
O      O      0.17180000000000     0.39620000000000     0.98320000000000
O      O      0.82820000000000     0.10380000000000     0.51680000000000
O      O      0.82820000000000     0.60380000000000     0.01680000000000
O      O      0.32820000000000     0.89620000000000     0.01680000000000
O      O      0.32820000000000     0.39620000000000     0.51680000000000
O      O      0.52180000000000     0.21170000000000     0.53900000000000
O      O      0.52180000000000     0.71170000000000     0.03900000000000
O      O      0.02180000000000     0.78830000000000     0.03900000000000
O      O      0.02180000000000     0.28830000000000     0.53900000000000
O      O      0.97820000000000     0.21170000000000     0.96100000000000
O      O      0.97820000000000     0.71170000000000     0.46100000000000
O      O      0.47820000000000     0.78830000000000     0.46100000000000
O      O      0.47820000000000     0.28830000000000     0.96100000000000
