data_stdin
_audit_creation_method 'critic2-4f1eba8'
_cell_length_a         7.1356000000
_cell_length_b         7.1178767061
_cell_length_c        12.3692000000
_cell_angle_alpha        90.0000
_cell_angle_beta        90.0000
_cell_angle_gamma       119.5646
_cell_volume           546.439323
_space_group_crystal_system monoclinic
_space_group_IT_number 15
_space_group_name_H-M_alt 'C2/c'
_space_group_name_Hall '-C 2yc'
loop_
_space_group_symop_operation_xyz
  'x,y,z'
  '-x,-y,-z'
  '-1/2-x,-1/2-y,z'
  '-1/2+x,-1/2+y,-z'
  '-1/2+x,y,-1/2+z'
  '-1/2-x,-y,-1/2-z'
  '-x,-1/2-y,-1/2+z'
  'x,-1/2+y,-1/2-z'
loop_
_atom_site_label
_atom_site_type_symbol
_atom_site_fract_x
_atom_site_fract_y
_atom_site_fract_z
Si     Si     0.06806000000000     0.92773000000000     0.10833000000000
Si     Si     0.96605000000000     0.45923000000000     0.15799000000000
O      O      0.00000000000000     0.00000000000000     0.00000000000000
O      O      0.75000000000000     0.25000000000000     0.11630000000000
O      O      0.32590000000000     0.05990000000000     0.12340000000000
O      O      0.98320000000000     0.67180000000000     0.10380000000000
O      O      0.53900000000000     0.52180000000000     0.21170000000000
