data_stdin
_audit_creation_method 'critic2-4f1eba8'
_cell_length_a         5.6100000000
_cell_length_b         5.6700000000
_cell_length_c         9.0500000000
_cell_angle_alpha        90.0000
_cell_angle_beta        90.0000
_cell_angle_gamma        90.0000
_cell_volume           287.868735
_space_group_crystal_system orthorhombic
_space_group_IT_number 16
_space_group_name_H-M_alt 'P222'
_space_group_name_Hall 'P 2 2'
loop_
_space_group_symop_operation_xyz
  'x,y,z'
  '-x,-y,z'
  'x,-y,-z'
  '-x,y,-z'
loop_
_atom_site_label
_atom_site_type_symbol
_atom_site_fract_x
_atom_site_fract_y
_atom_site_fract_z
Al     Al     0.00000000000000     0.00000000000000     0.00000000000000
Al     Al     0.50000000000000     0.00000000000000     0.50000000000000
P      P      0.00000000000000     0.50000000000000     0.00000000000000
P      P      0.00000000000000     0.00000000000000     0.50000000000000
S      S      0.20000000000000     0.26000000000000     0.12500000000000
S      S      0.74000000000000     0.80000000000000     0.63000000000000
