data_convert
_cell_volume           475.630141
_symmetry_space_group_name_H-M 'P 1'
_symmetry_Int_Tables_number 1
loop_
_symmetry_equiv_pos_site_id
_symmetry_equiv_pos_as_xyz
1 x,y,z
_cell_length_a         5.5680000000
_cell_length_b        15.5200000000
_cell_length_c         5.5040000000
_cell_angle_alpha        90.0000
_cell_angle_beta        90.0000
_cell_angle_gamma        90.0000
_cell_formula_units_Z 1
loop_
_atom_site_label
_atom_site_type_symbol
_atom_site_fract_x
_atom_site_fract_y
_atom_site_fract_z
Na     Na     0.51900000000000     0.25000000000000     0.00000000000000
Na     Na     0.48100000000000     0.75000000000000     0.00000000000000
Na     Na     0.98100000000000     0.25000000000000     0.50000000000000
Na     Na     0.01900000000000     0.75000000000000     0.50000000000000
Na     Na     0.00000000000000     0.50000000000000     0.51900000000000
Na     Na     0.00000000000000     0.00000000000000     0.48100000000000
Na     Na     0.50000000000000     0.50000000000000     0.98100000000000
Na     Na     0.50000000000000     0.00000000000000     0.01900000000000
Nb     Nb     0.00500000000000     0.37500000000000     0.01400000000000
Nb     Nb     0.00500000000000     0.12500000000000     0.98600000000000
Nb     Nb     0.99500000000000     0.62500000000000     0.01400000000000
Nb     Nb     0.99500000000000     0.87500000000000     0.98600000000000
Nb     Nb     0.50500000000000     0.37500000000000     0.51400000000000
Nb     Nb     0.50500000000000     0.12500000000000     0.48600000000000
Nb     Nb     0.49500000000000     0.62500000000000     0.51400000000000
Nb     Nb     0.49500000000000     0.87500000000000     0.48600000000000
O      O      0.25000000000000     0.37500000000000     0.25000000000000
O      O      0.25000000000000     0.12500000000000     0.75000000000000
O      O      0.75000000000000     0.62500000000000     0.25000000000000
O      O      0.75000000000000     0.87500000000000     0.75000000000000
O      O      0.25000000000000     0.37500000000000     0.75000000000000
O      O      0.25000000000000     0.12500000000000     0.25000000000000
O      O      0.75000000000000     0.62500000000000     0.75000000000000
O      O      0.75000000000000     0.87500000000000     0.25000000000000
O      O      0.75000000000000     0.37500000000000     0.25000000000000
O      O      0.75000000000000     0.12500000000000     0.75000000000000
O      O      0.25000000000000     0.62500000000000     0.25000000000000
O      O      0.25000000000000     0.87500000000000     0.75000000000000
O      O      0.75000000000000     0.37500000000000     0.75000000000000
O      O      0.75000000000000     0.12500000000000     0.25000000000000
O      O      0.25000000000000     0.62500000000000     0.75000000000000
O      O      0.25000000000000     0.87500000000000     0.25000000000000
O      O      0.02500000000000     0.25000000000000     0.00000000000000
O      O      0.97500000000000     0.75000000000000     0.00000000000000
O      O      0.47500000000000     0.25000000000000     0.50000000000000
O      O      0.52500000000000     0.75000000000000     0.50000000000000
O      O      0.00000000000000     0.50000000000000     0.02500000000000
O      O      0.00000000000000     0.00000000000000     0.97500000000000
O      O      0.50000000000000     0.50000000000000     0.47500000000000
O      O      0.50000000000000     0.00000000000000     0.52500000000000
