data_stdin
_cell_volume          1069.910797
_symmetry_space_group_name_H-M 'P 1'
_symmetry_Int_Tables_number 1
loop_
_symmetry_equiv_pos_site_id
_symmetry_equiv_pos_as_xyz
1 x,y,z
_cell_length_a        26.1753000000
_cell_length_b         4.9843700000
_cell_length_c         8.2006000000
_cell_angle_alpha        90.0000
_cell_angle_beta        90.0000
_cell_angle_gamma        90.0000
_cell_formula_units_Z 1
loop_
_atom_site_label
_atom_site_type_symbol
_atom_site_fract_x
_atom_site_fract_y
_atom_site_fract_z
Si     Si     0.13890000000000     0.51100000000000     0.69490000000000
Si     Si     0.86110000000000     0.01100000000000     0.80510000000000
Si     Si     0.63890000000000     0.98900000000000     0.30510000000000
Si     Si     0.36110000000000     0.48900000000000     0.19490000000000
Si     Si     0.14000000000000     0.39100000000000     0.32920000000000
Si     Si     0.86000000000000     0.89100000000000     0.17080000000000
Si     Si     0.64000000000000     0.10900000000000     0.67080000000000
Si     Si     0.36000000000000     0.60900000000000     0.82920000000000
Si     Si     0.19440000000000     0.88800000000000     0.19930000000000
Si     Si     0.80560000000000     0.38800000000000     0.30070000000000
Si     Si     0.69440000000000     0.61200000000000     0.80070000000000
Si     Si     0.30560000000000     0.11200000000000     0.69930000000000
Si     Si     0.19480000000000     0.01900000000000     0.83020000000000
Si     Si     0.80520000000000     0.51900000000000     0.66980000000000
Si     Si     0.69480000000000     0.48100000000000     0.16980000000000
Si     Si     0.30520000000000     0.98100000000000     0.33020000000000
Si     Si     0.02870000000000     0.39500000000000     0.18670000000000
Si     Si     0.97130000000000     0.89500000000000     0.31330000000000
Si     Si     0.52870000000000     0.10500000000000     0.81330000000000
Si     Si     0.47130000000000     0.60500000000000     0.68670000000000
Si     Si     0.02830000000000     0.51000000000000     0.81580000000000
Si     Si     0.97170000000000     0.01000000000000     0.68420000000000
Si     Si     0.52830000000000     0.99000000000000     0.18420000000000
Si     Si     0.47170000000000     0.49000000000000     0.31580000000000
O      O      0.19660000000000     0.95700000000000     0.01530000000000
O      O      0.80340000000000     0.45700000000000     0.48470000000000
O      O      0.69660000000000     0.54300000000000     0.98470000000000
O      O      0.30340000000000     0.04300000000000     0.51530000000000
O      O      0.14910000000000     0.45700000000000     0.51030000000000
O      O      0.85090000000000     0.95700000000000     0.98970000000000
O      O      0.64910000000000     0.04300000000000     0.48970000000000
O      O      0.35090000000000     0.54300000000000     0.01030000000000
O      O      0.08230000000000     0.42900000000000     0.27780000000000
O      O      0.91770000000000     0.92900000000000     0.22220000000000
O      O      0.58230000000000     0.07100000000000     0.72220000000000
O      O      0.41770000000000     0.57100000000000     0.77780000000000
O      O      0.08140000000000     0.56800000000000     0.72990000000000
O      O      0.91860000000000     0.06800000000000     0.77010000000000
O      O      0.58140000000000     0.93200000000000     0.27010000000000
O      O      0.41860000000000     0.43200000000000     0.22990000000000
O      O      0.25020000000000     0.08000000000000     0.77040000000000
O      O      0.74980000000000     0.58000000000000     0.72960000000000
O      O      0.75020000000000     0.42000000000000     0.22960000000000
O      O      0.24980000000000     0.92000000000000     0.27040000000000
O      O      0.15710000000000     0.26000000000000     0.80020000000000
O      O      0.84290000000000     0.76000000000000     0.69980000000000
O      O      0.65710000000000     0.24000000000000     0.19980000000000
O      O      0.34290000000000     0.74000000000000     0.30020000000000
O      O      0.17570000000000     0.58300000000000     0.22620000000000
O      O      0.82430000000000     0.08300000000000     0.27380000000000
O      O      0.67570000000000     0.91700000000000     0.77380000000000
O      O      0.32430000000000     0.41700000000000     0.72620000000000
O      O      0.15700000000000     0.08700000000000     0.29020000000000
O      O      0.84300000000000     0.58700000000000     0.20980000000000
O      O      0.65700000000000     0.41300000000000     0.70980000000000
O      O      0.34300000000000     0.91300000000000     0.79020000000000
O      O      0.17290000000000     0.76600000000000     0.73300000000000
O      O      0.82710000000000     0.26600000000000     0.76700000000000
O      O      0.67290000000000     0.73400000000000     0.26700000000000
O      O      0.32710000000000     0.23400000000000     0.23300000000000
O      O      0.46340000000000     0.54100000000000     0.50210000000000
O      O      0.53660000000000     0.04100000000000     0.99790000000000
O      O      0.96340000000000     0.95900000000000     0.49790000000000
O      O      0.03660000000000     0.45900000000000     0.00210000000000
O      O      0.49060000000000     0.90500000000000     0.72340000000000
O      O      0.50940000000000     0.40500000000000     0.77660000000000
O      O      0.99060000000000     0.59500000000000     0.27660000000000
O      O      0.00940000000000     0.09500000000000     0.22340000000000
O      O      0.49600000000000     0.72600000000000     0.21240000000000
O      O      0.50400000000000     0.22600000000000     0.28760000000000
O      O      0.99600000000000     0.77400000000000     0.78760000000000
O      O      0.00400000000000     0.27400000000000     0.71240000000000
