data_convert
_cell_volume           237.575652
_symmetry_space_group_name_H-M 'P 1'
_symmetry_Int_Tables_number 1
loop_
_symmetry_equiv_pos_site_id
_symmetry_equiv_pos_as_xyz
1 x,y,z
_cell_length_a         4.3330000000
_cell_length_b         7.0620000000
_cell_length_c         7.7640000000
_cell_angle_alpha        90.0000
_cell_angle_beta        90.0000
_cell_angle_gamma        90.0000
_cell_formula_units_Z 1
loop_
_atom_site_label
_atom_site_type_symbol
_atom_site_fract_x
_atom_site_fract_y
_atom_site_fract_z
Ag     Ag     0.10700000000000     0.36900000000000     0.45600000000000
Ag     Ag     0.39300000000000     0.86900000000000     0.04400000000000
Ag     Ag     0.60700000000000     0.63100000000000     0.54400000000000
Ag     Ag     0.89300000000000     0.13100000000000     0.95600000000000
Ag     Ag     0.72800000000000     0.02900000000000     0.36100000000000
Ag     Ag     0.77200000000000     0.52900000000000     0.13900000000000
Ag     Ag     0.22800000000000     0.97100000000000     0.63900000000000
Ag     Ag     0.27200000000000     0.47100000000000     0.86100000000000
Se     Se     0.35800000000000     0.23500000000000     0.14900000000000
Se     Se     0.14200000000000     0.73500000000000     0.35100000000000
Se     Se     0.85800000000000     0.76500000000000     0.85100000000000
Se     Se     0.64200000000000     0.26500000000000     0.64900000000000
