data_stdin
_audit_creation_method 'critic2-4f1eba8'
_cell_length_a        13.7168000000
_cell_length_b         5.6054000000
_cell_length_c         4.9329000000
_cell_angle_alpha        90.0000
_cell_angle_beta        90.0000
_cell_angle_gamma        90.0000
_cell_volume           379.281559
_space_group_crystal_system orthorhombic
_space_group_IT_number 19
_space_group_name_H-M_alt 'P2_12_12_1'
_space_group_name_Hall 'P 2ac 2ab'
loop_
_space_group_symop_operation_xyz
  'x,y,z'
  '-1/2+x,-1/2-y,-z'
  '-1/2-x,-y,-1/2+z'
  '-x,-1/2+y,-1/2-z'
loop_
_atom_site_label
_atom_site_type_symbol
_atom_site_fract_x
_atom_site_fract_y
_atom_site_fract_z
Ba     Ba     0.90570000000000     0.09050000000000     0.01970000000000
Al     Al     0.83480000000000     0.59810000000000     0.43620000000000
F      F      0.72600000000000     0.14540000000000     0.81420000000000
F      F      0.58120000000000     0.21510000000000     0.11640000000000
F      F      0.89590000000000     0.33340000000000     0.54960000000000
F      F      0.92080000000000     0.59970000000000     0.15630000000000
F      F      0.75110000000000     0.40990000000000     0.22580000000000
