data_convert
_cell_volume           362.968704
_symmetry_space_group_name_H-M 'P 1'
_symmetry_Int_Tables_number 1
loop_
_symmetry_equiv_pos_site_id
_symmetry_equiv_pos_as_xyz
1 x,y,z
_cell_length_a         8.7400000000
_cell_length_b         5.0400000000
_cell_length_c         8.2400000000
_cell_angle_alpha        90.0000
_cell_angle_beta        90.0000
_cell_angle_gamma        90.0000
_cell_formula_units_Z 1
loop_
_atom_site_label
_atom_site_type_symbol
_atom_site_fract_x
_atom_site_fract_y
_atom_site_fract_z
Si     Si     0.16846000000000     0.53589000000000     0.43857000000000
Si     Si     0.66846000000000     0.03589000000000     0.43857000000000
Si     Si     0.83154000000000     0.53589000000000     0.56143000000000
Si     Si     0.33154000000000     0.03589000000000     0.56143000000000
Si     Si     0.16846000000000     0.46411000000000     0.06143000000000
Si     Si     0.66846000000000     0.96411000000000     0.06143000000000
Si     Si     0.83154000000000     0.46411000000000     0.93857000000000
Si     Si     0.33154000000000     0.96411000000000     0.93857000000000
O      O      0.33360000000000     0.00000000000000     0.75000000000000
O      O      0.83360000000000     0.50000000000000     0.75000000000000
O      O      0.66640000000000     0.00000000000000     0.25000000000000
O      O      0.16640000000000     0.50000000000000     0.25000000000000
O      O      0.00000000000000     0.55970000000000     0.50000000000000
O      O      0.50000000000000     0.05970000000000     0.50000000000000
O      O      0.00000000000000     0.44030000000000     0.00000000000000
O      O      0.50000000000000     0.94030000000000     0.00000000000000
O      O      0.25470000000000     0.30290000000000     0.52130000000000
O      O      0.75470000000000     0.80290000000000     0.52130000000000
O      O      0.74530000000000     0.30290000000000     0.47870000000000
O      O      0.24530000000000     0.80290000000000     0.47870000000000
O      O      0.25470000000000     0.69710000000000     0.97870000000000
O      O      0.75470000000000     0.19710000000000     0.97870000000000
O      O      0.74530000000000     0.69710000000000     0.02130000000000
O      O      0.24530000000000     0.19710000000000     0.02130000000000
