data_new
_cell_volume           434.610049
_symmetry_space_group_name_H-M 'P 1'
_symmetry_Int_Tables_number 1
loop_
_symmetry_equiv_pos_site_id
_symmetry_equiv_pos_as_xyz
1 x,y,z
_cell_length_a         5.5994000000
_cell_length_b         6.7572000000
_cell_length_c        11.4866000000
_cell_angle_alpha        90.0000
_cell_angle_beta        90.0000
_cell_angle_gamma        90.0000
_cell_formula_units_Z 1
loop_
_atom_site_label
_atom_site_type_symbol
_atom_site_fract_x
_atom_site_fract_y
_atom_site_fract_z
Ba     Ba     0.25000000000000     0.00000000000000     0.33630000000000
Ba     Ba     0.25000000000000     0.50000000000000     0.83630000000000
Ba     Ba     0.75000000000000     0.00000000000000     0.66370000000000
Ba     Ba     0.75000000000000     0.50000000000000     0.16370000000000
V      V      0.00000000000000     0.98800000000000     0.00000000000000
V      V      0.00000000000000     0.48800000000000     0.50000000000000
V      V      0.50000000000000     0.01200000000000     0.00000000000000
V      V      0.50000000000000     0.51200000000000     0.50000000000000
S      S      0.25000000000000     0.00000000000000     0.83030000000000
S      S      0.25000000000000     0.50000000000000     0.33030000000000
S      S      0.75000000000000     0.00000000000000     0.16970000000000
S      S      0.75000000000000     0.50000000000000     0.66970000000000
S      S      0.26130000000000     0.24420000000000     0.08350000000000
S      S      0.26130000000000     0.74420000000000     0.58350000000000
S      S      0.23870000000000     0.75580000000000     0.08350000000000
S      S      0.23870000000000     0.25580000000000     0.58350000000000
S      S      0.73870000000000     0.24420000000000     0.91650000000000
S      S      0.73870000000000     0.74420000000000     0.41650000000000
S      S      0.76130000000000     0.75580000000000     0.91650000000000
S      S      0.76130000000000     0.25580000000000     0.41650000000000
