data_convert
_cell_volume           530.855728
_symmetry_space_group_name_H-M 'P 1'
_symmetry_Int_Tables_number 1
loop_
_symmetry_equiv_pos_site_id
_symmetry_equiv_pos_as_xyz
1 x,y,z
_cell_length_a         6.3040000000
_cell_length_b        12.0777000000
_cell_length_c         6.9723000000
_cell_angle_alpha        90.0000
_cell_angle_beta        90.0000
_cell_angle_gamma        90.0000
_cell_formula_units_Z 1
loop_
_atom_site_label
_atom_site_type_symbol
_atom_site_fract_x
_atom_site_fract_y
_atom_site_fract_z
Ca     Ca     0.66640000000000     0.25000000000000     0.25000000000000
Ca     Ca     0.66640000000000     0.75000000000000     0.75000000000000
Ca     Ca     0.33360000000000     0.75000000000000     0.25000000000000
Ca     Ca     0.33360000000000     0.25000000000000     0.75000000000000
Ca     Ca     0.00000000000000     0.00000000000000     0.00000000000000
Ca     Ca     0.00000000000000     0.50000000000000     0.50000000000000
S      S      0.50000000000000     0.00000000000000     0.00000000000000
S      S      0.50000000000000     0.50000000000000     0.50000000000000
S      S      0.16480000000000     0.25000000000000     0.25000000000000
S      S      0.16480000000000     0.75000000000000     0.75000000000000
S      S      0.83520000000000     0.75000000000000     0.25000000000000
S      S      0.83520000000000     0.25000000000000     0.75000000000000
O      O      0.35480000000000     0.07130000000000     0.88420000000000
O      O      0.35480000000000     0.57130000000000     0.38420000000000
O      O      0.64520000000000     0.92870000000000     0.88420000000000
O      O      0.64520000000000     0.42870000000000     0.38420000000000
O      O      0.64520000000000     0.07130000000000     0.11580000000000
O      O      0.64520000000000     0.57130000000000     0.61580000000000
O      O      0.35480000000000     0.92870000000000     0.11580000000000
O      O      0.35480000000000     0.42870000000000     0.61580000000000
O      O      0.30490000000000     0.22670000000000     0.41520000000000
O      O      0.30490000000000     0.72670000000000     0.91520000000000
O      O      0.69510000000000     0.77330000000000     0.41520000000000
O      O      0.69510000000000     0.27330000000000     0.91520000000000
O      O      0.69510000000000     0.22670000000000     0.58480000000000
O      O      0.69510000000000     0.72670000000000     0.08480000000000
O      O      0.30490000000000     0.77330000000000     0.58480000000000
O      O      0.30490000000000     0.27330000000000     0.08480000000000
O      O      0.02920000000000     0.34940000000000     0.27400000000000
O      O      0.02920000000000     0.84940000000000     0.77400000000000
O      O      0.97080000000000     0.65060000000000     0.27400000000000
O      O      0.97080000000000     0.15060000000000     0.77400000000000
O      O      0.97080000000000     0.34940000000000     0.72600000000000
O      O      0.97080000000000     0.84940000000000     0.22600000000000
O      O      0.02920000000000     0.65060000000000     0.72600000000000
O      O      0.02920000000000     0.15060000000000     0.22600000000000
