data_stdin
_audit_creation_method 'critic2-4f1eba8'
_cell_length_a         6.4861000000
_cell_length_b         9.0573000000
_cell_length_c        10.0263000000
_cell_angle_alpha        90.0000
_cell_angle_beta        90.0000
_cell_angle_gamma        90.0000
_cell_volume           589.010570
_space_group_crystal_system orthorhombic
_space_group_IT_number 22
_space_group_name_H-M_alt 'F222'
_space_group_name_Hall 'F 2 2'
loop_
_space_group_symop_operation_xyz
  'x,y,z'
  '-x,-y,z'
  'x,-y,-z'
  '-x,y,-z'
  '-1/2+x,y,-1/2+z'
  '-1/2-x,-y,-1/2+z'
  '-1/2+x,-y,-1/2-z'
  '-1/2-x,y,-1/2-z'
  '-1/2+x,-1/2+y,z'
  '-1/2-x,-1/2-y,z'
  '-1/2+x,-1/2-y,-z'
  '-1/2-x,-1/2+y,-z'
  'x,-1/2+y,-1/2+z'
  '-x,-1/2-y,-1/2+z'
  'x,-1/2-y,-1/2-z'
  '-x,-1/2+y,-1/2-z'
loop_
_atom_site_label
_atom_site_type_symbol
_atom_site_fract_x
_atom_site_fract_y
_atom_site_fract_z
Ce     Ce     0.25000000000000     0.25000000000000     0.25000000000000
B      B      0.75000000000000     0.07190000000000     0.25000000000000
B      B      0.00000000000000     0.31340000000000     0.00000000000000
Ce     Ce     0.00000000000000     0.00000000000000     0.00000000000000
Ru     Ru     0.75000000000000     0.25000000000000     0.38560000000000
Ru     Ru     0.00000000000000     0.00000000000000     0.36270000000000
