data_stdin
_audit_creation_method 'critic2-4f1eba8'
_cell_length_a         4.1199100000
_cell_length_b         4.2233200000
_cell_length_c        13.3490000000
_cell_angle_alpha        90.0000
_cell_angle_beta        90.0000
_cell_angle_gamma        90.0000
_cell_volume           232.268573
_space_group_crystal_system orthorhombic
_space_group_IT_number 23
_space_group_name_H-M_alt 'I222'
_space_group_name_Hall 'I 2 2'
loop_
_space_group_symop_operation_xyz
  'x,y,z'
  '-x,-y,z'
  'x,-y,-z'
  '-x,y,-z'
  '-1/2+x,-1/2+y,-1/2+z'
  '-1/2-x,-1/2-y,-1/2+z'
  '-1/2+x,-1/2-y,-1/2-z'
  '-1/2-x,-1/2+y,-1/2-z'
loop_
_atom_site_label
_atom_site_type_symbol
_atom_site_fract_x
_atom_site_fract_y
_atom_site_fract_z
Nd     Nd     0.00000000000000     0.50000000000000     0.16854000000000
S      S      0.50000000000000     0.00000000000000     0.00000000000000
O      O      0.32250000000000     0.21240000000000     0.05660000000000
O      O      0.00000000000000     0.00000000000000     0.24210000000000
