data_stdin
_audit_creation_method 'critic2-4f1eba8'
_cell_length_a         7.5120000000
_cell_length_b        19.5320000000
_cell_length_c         7.1430000000
_cell_angle_alpha        90.0000
_cell_angle_beta        90.0000
_cell_angle_gamma        90.0000
_cell_volume          1048.052275
_space_group_crystal_system orthorhombic
_space_group_IT_number 24
_space_group_name_H-M_alt 'I2_12_12_1'
_space_group_name_Hall 'I 2b 2c'
loop_
_space_group_symop_operation_xyz
  'x,y,z'
  '-1/2-x,y,-z'
  '-1/2-x,-y,-1/2+z'
  'x,-y,-1/2-z'
  '-1/2+x,-1/2+y,-1/2+z'
  '-x,-1/2+y,-1/2-z'
  '-x,-1/2-y,z'
  '-1/2+x,-1/2-y,-z'
loop_
_atom_site_label
_atom_site_type_symbol
_atom_site_fract_x
_atom_site_fract_y
_atom_site_fract_z
Cd     Cd     0.26266000000000     0.50000000000000     0.25000000000000
Br     Br     0.49926000000000     0.45242000000000     0.99174000000000
N      N      0.26700000000000     0.39401000000000     0.40540000000000
N      N      0.30900000000000     0.18137000000000     0.64510000000000
N      N      0.25000000000000     0.28850000000000     0.50000000000000
C      C      0.25000000000000     0.21630000000000     0.50000000000000
C      C      0.27550000000000     0.33043000000000     0.35120000000000
H      H      0.29590000000000     0.31600000000000     0.22900000000000
O      O      0.50000000000000     0.25000000000000     0.00620000000000
H      H      0.58400000000000     0.28500000000000     0.93500000000000
N      N      0.28370000000000     0.11707000000000     0.58510000000000
H      H      0.31100000000000     0.08300000000000     0.65500000000000
