data_convert
_cell_volume           512.021621
_symmetry_space_group_name_H-M 'P 1'
_symmetry_Int_Tables_number 1
loop_
_symmetry_equiv_pos_site_id
_symmetry_equiv_pos_as_xyz
1 x,y,z
_cell_length_a         7.0510000000
_cell_length_b         9.9680000000
_cell_length_c         7.2850000000
_cell_angle_alpha        90.0000
_cell_angle_beta        90.0000
_cell_angle_gamma        90.0000
_cell_formula_units_Z 1
loop_
_atom_site_label
_atom_site_type_symbol
_atom_site_fract_x
_atom_site_fract_y
_atom_site_fract_z
Na     Na     0.25000000000000     0.00030000000000     0.50000000000000
Na     Na     0.75000000000000     0.50030000000000     0.00000000000000
Na     Na     0.75000000000000     0.99970000000000     0.50000000000000
Na     Na     0.25000000000000     0.49970000000000     0.00000000000000
Na     Na     0.99730000000000     0.25000000000000     0.75000000000000
Na     Na     0.49730000000000     0.75000000000000     0.25000000000000
Na     Na     0.00270000000000     0.75000000000000     0.75000000000000
Na     Na     0.50270000000000     0.25000000000000     0.25000000000000
Mg     Mg     0.25000000000000     0.00060000000000     0.00000000000000
Mg     Mg     0.75000000000000     0.50060000000000     0.50000000000000
Mg     Mg     0.75000000000000     0.99940000000000     0.00000000000000
Mg     Mg     0.25000000000000     0.49940000000000     0.50000000000000
Al     Al     0.00000000000000     0.25000000000000     0.25000000000000
Al     Al     0.50000000000000     0.75000000000000     0.75000000000000
Al     Al     0.00000000000000     0.75000000000000     0.25000000000000
Al     Al     0.50000000000000     0.25000000000000     0.75000000000000
F      F      0.00000000000000     0.00000000000000     0.88630000000000
F      F      0.50000000000000     0.50000000000000     0.38630000000000
F      F      0.00000000000000     0.50000000000000     0.61370000000000
F      F      0.50000000000000     0.00000000000000     0.11370000000000
F      F      0.99840000000000     0.16480000000000     0.47090000000000
F      F      0.49840000000000     0.66480000000000     0.97090000000000
F      F      0.00160000000000     0.66480000000000     0.02910000000000
F      F      0.50160000000000     0.16480000000000     0.52910000000000
F      F      0.49840000000000     0.83520000000000     0.52910000000000
F      F      0.99840000000000     0.33520000000000     0.02910000000000
F      F      0.50160000000000     0.33520000000000     0.97090000000000
F      F      0.00160000000000     0.83520000000000     0.47090000000000
F      F      0.18300000000000     0.13590000000000     0.18180000000000
F      F      0.68300000000000     0.63590000000000     0.68180000000000
F      F      0.81700000000000     0.63590000000000     0.31820000000000
F      F      0.31700000000000     0.13590000000000     0.81820000000000
F      F      0.68300000000000     0.86410000000000     0.81820000000000
F      F      0.18300000000000     0.36410000000000     0.31820000000000
F      F      0.31700000000000     0.36410000000000     0.68180000000000
F      F      0.81700000000000     0.86410000000000     0.18180000000000
F      F      0.31500000000000     0.63880000000000     0.67910000000000
F      F      0.81500000000000     0.13880000000000     0.17910000000000
F      F      0.68500000000000     0.13880000000000     0.82090000000000
F      F      0.18500000000000     0.63880000000000     0.32090000000000
F      F      0.81500000000000     0.36120000000000     0.32090000000000
F      F      0.31500000000000     0.86120000000000     0.82090000000000
F      F      0.18500000000000     0.86120000000000     0.17910000000000
F      F      0.68500000000000     0.36120000000000     0.67910000000000
