data_convert
_cell_volume           519.858159
_symmetry_space_group_name_H-M 'P 1'
_symmetry_Int_Tables_number 1
loop_
_symmetry_equiv_pos_site_id
_symmetry_equiv_pos_as_xyz
1 x,y,z
_cell_length_a        11.2020000000
_cell_length_b         4.0145000000
_cell_length_c        11.5600000000
_cell_angle_alpha        90.0000
_cell_angle_beta        90.0000
_cell_angle_gamma        90.0000
_cell_formula_units_Z 1
loop_
_atom_site_label
_atom_site_type_symbol
_atom_site_fract_x
_atom_site_fract_y
_atom_site_fract_z
Bi     Bi     0.92106000000000     0.00000000000000     0.57233000000000
Bi     Bi     0.07894000000000     0.00000000000000     0.07233000000000
Bi     Bi     0.56344000000000     0.50000000000000     0.60921000000000
Bi     Bi     0.43656000000000     0.50000000000000     0.10921000000000
Bi     Bi     0.21048000000000     0.50000000000000     0.43571000000000
Bi     Bi     0.78952000000000     0.50000000000000     0.93571000000000
Pb     Pb     0.25070000000000     0.00000000000000     0.76430000000000
Pb     Pb     0.74930000000000     0.00000000000000     0.26430000000000
Cu     Cu     0.46120000000000     0.00000000000000     0.36140000000000
Cu     Cu     0.53880000000000     0.00000000000000     0.86140000000000
S      S      0.80210000000000     0.50000000000000     0.46960000000000
S      S      0.19790000000000     0.50000000000000     0.96960000000000
S      S      0.11040000000000     0.50000000000000     0.63710000000000
S      S      0.88960000000000     0.50000000000000     0.13710000000000
S      S      0.44470000000000     0.50000000000000     0.80800000000000
S      S      0.55530000000000     0.50000000000000     0.30800000000000
S      S      0.69010000000000     0.00000000000000     0.71180000000000
S      S      0.30990000000000     0.00000000000000     0.21180000000000
S      S      0.37510000000000     0.00000000000000     0.54370000000000
S      S      0.62490000000000     0.00000000000000     0.04370000000000
S      S      0.05310000000000     0.00000000000000     0.37590000000000
S      S      0.94690000000000     0.00000000000000     0.87590000000000
