data_convert
_cell_volume           519.858159
_symmetry_space_group_name_H-M 'P 1'
_symmetry_Int_Tables_number 1
loop_
_symmetry_equiv_pos_site_id
_symmetry_equiv_pos_as_xyz
1 x,y,z
_cell_length_a        11.2020000000
_cell_length_b        11.5600000000
_cell_length_c         4.0145000000
_cell_angle_alpha        90.0000
_cell_angle_beta        90.0000
_cell_angle_gamma        90.0000
_cell_formula_units_Z 1
loop_
_atom_site_label
_atom_site_type_symbol
_atom_site_fract_x
_atom_site_fract_y
_atom_site_fract_z
Bi     Bi     0.92106000000000     0.42767000000000     0.00000000000000
Bi     Bi     0.07894000000000     0.92767000000000     0.00000000000000
Bi     Bi     0.56344000000000     0.39079000000000     0.50000000000000
Bi     Bi     0.43656000000000     0.89079000000000     0.50000000000000
Bi     Bi     0.21048000000000     0.56429000000000     0.50000000000000
Bi     Bi     0.78952000000000     0.06429000000000     0.50000000000000
Pb     Pb     0.25070000000000     0.23570000000000     0.00000000000000
Pb     Pb     0.74930000000000     0.73570000000000     0.00000000000000
Cu     Cu     0.46120000000000     0.63860000000000     0.00000000000000
Cu     Cu     0.53880000000000     0.13860000000000     0.00000000000000
S      S      0.80210000000000     0.53040000000000     0.50000000000000
S      S      0.19790000000000     0.03040000000000     0.50000000000000
S      S      0.11040000000000     0.36290000000000     0.50000000000000
S      S      0.88960000000000     0.86290000000000     0.50000000000000
S      S      0.44470000000000     0.19200000000000     0.50000000000000
S      S      0.55530000000000     0.69200000000000     0.50000000000000
S      S      0.69010000000000     0.28820000000000     0.00000000000000
S      S      0.30990000000000     0.78820000000000     0.00000000000000
S      S      0.37510000000000     0.45630000000000     0.00000000000000
S      S      0.62490000000000     0.95630000000000     0.00000000000000
S      S      0.05310000000000     0.62410000000000     0.00000000000000
S      S      0.94690000000000     0.12410000000000     0.00000000000000
