data_convert
_cell_volume           861.526905
_symmetry_space_group_name_H-M 'P 1'
_symmetry_Int_Tables_number 1
loop_
_symmetry_equiv_pos_site_id
_symmetry_equiv_pos_as_xyz
1 x,y,z
_cell_length_a         5.8538000000
_cell_length_b         7.2421000000
_cell_length_c        20.3220000000
_cell_angle_alpha        90.0000
_cell_angle_beta        90.0000
_cell_angle_gamma        90.0000
_cell_formula_units_Z 1
loop_
_atom_site_label
_atom_site_type_symbol
_atom_site_fract_x
_atom_site_fract_y
_atom_site_fract_z
C      C      0.91980000000000     0.72420000000000     0.25250000000000
C      C      0.91980000000000     0.27580000000000     0.74750000000000
C      C      0.41980000000000     0.27580000000000     0.25250000000000
C      C      0.41980000000000     0.72420000000000     0.74750000000000
C      C      0.76470000000000     0.69890000000000     0.19590000000000
C      C      0.76470000000000     0.30110000000000     0.80410000000000
C      C      0.26470000000000     0.30110000000000     0.19590000000000
C      C      0.26470000000000     0.69890000000000     0.80410000000000
H      H      0.63270000000000     0.62560000000000     0.20330000000000
H      H      0.63270000000000     0.37440000000000     0.79670000000000
H      H      0.13270000000000     0.37440000000000     0.20330000000000
H      H      0.13270000000000     0.62560000000000     0.79670000000000
C      C      0.79010000000000     0.76770000000000     0.13590000000000
C      C      0.79010000000000     0.23230000000000     0.86410000000000
C      C      0.29010000000000     0.23230000000000     0.13590000000000
C      C      0.29010000000000     0.76770000000000     0.86410000000000
H      H      0.92640000000000     0.83240000000000     0.12540000000000
H      H      0.92640000000000     0.16760000000000     0.87460000000000
H      H      0.42640000000000     0.16760000000000     0.12540000000000
H      H      0.42640000000000     0.83240000000000     0.87460000000000
I      I      0.53955000000000     0.73794000000000     0.06382600000000
I      I      0.53955000000000     0.26206000000000     0.93617400000000
I      I      0.03955000000000     0.26206000000000     0.06382600000000
I      I      0.03955000000000     0.73794000000000     0.93617400000000
C      C      0.84470000000000     0.66920000000000     0.31450000000000
C      C      0.84470000000000     0.33080000000000     0.68550000000000
C      C      0.34470000000000     0.33080000000000     0.31450000000000
C      C      0.34470000000000     0.66920000000000     0.68550000000000
H      H      0.69930000000000     0.61220000000000     0.31860000000000
H      H      0.69930000000000     0.38780000000000     0.68140000000000
H      H      0.19930000000000     0.38780000000000     0.31860000000000
H      H      0.19930000000000     0.61220000000000     0.68140000000000
C      C      0.97620000000000     0.69540000000000     0.37050000000000
C      C      0.97620000000000     0.30460000000000     0.62950000000000
C      C      0.47620000000000     0.30460000000000     0.37050000000000
C      C      0.47620000000000     0.69540000000000     0.62950000000000
H      H      0.92130000000000     0.66060000000000     0.41270000000000
H      H      0.92130000000000     0.33940000000000     0.58730000000000
H      H      0.42130000000000     0.33940000000000     0.41270000000000
H      H      0.42130000000000     0.66060000000000     0.58730000000000
C      C      0.19270000000000     0.77510000000000     0.36280000000000
C      C      0.19270000000000     0.22490000000000     0.63720000000000
C      C      0.69270000000000     0.22490000000000     0.36280000000000
C      C      0.69270000000000     0.77510000000000     0.63720000000000
Br     Br     0.37936000000000     0.80663000000000     0.43799000000000
Br     Br     0.37936000000000     0.19337000000000     0.56201000000000
Br     Br     0.87936000000000     0.19337000000000     0.43799000000000
Br     Br     0.87936000000000     0.80663000000000     0.56201000000000
C      C      0.27300000000000     0.82900000000000     0.30220000000000
C      C      0.27300000000000     0.17100000000000     0.69780000000000
C      C      0.77300000000000     0.17100000000000     0.30220000000000
C      C      0.77300000000000     0.82900000000000     0.69780000000000
H      H      0.41940000000000     0.88460000000000     0.29840000000000
H      H      0.41940000000000     0.11540000000000     0.70160000000000
H      H      0.91940000000000     0.11540000000000     0.29840000000000
H      H      0.91940000000000     0.88460000000000     0.70160000000000
C      C      0.13850000000000     0.80160000000000     0.24660000000000
C      C      0.13850000000000     0.19840000000000     0.75340000000000
C      C      0.63850000000000     0.19840000000000     0.24660000000000
C      C      0.63850000000000     0.80160000000000     0.75340000000000
H      H      0.19500000000000     0.83540000000000     0.20440000000000
H      H      0.19500000000000     0.16460000000000     0.79560000000000
H      H      0.69500000000000     0.16460000000000     0.20440000000000
H      H      0.69500000000000     0.83540000000000     0.79560000000000
