data_convert
_cell_volume           646.531600
_symmetry_space_group_name_H-M 'P 1'
_symmetry_Int_Tables_number 1
loop_
_symmetry_equiv_pos_site_id
_symmetry_equiv_pos_as_xyz
1 x,y,z
_cell_length_a        16.5100000000
_cell_length_b         8.8000000000
_cell_length_c         4.4500000000
_cell_angle_alpha        90.0000
_cell_angle_beta        90.0000
_cell_angle_gamma        90.0000
_cell_formula_units_Z 1
loop_
_atom_site_label
_atom_site_type_symbol
_atom_site_fract_x
_atom_site_fract_y
_atom_site_fract_z
Au     Au     0.00000000000000     0.00000000000000     0.00000000000000
Au     Au     0.50000000000000     0.00000000000000     0.00000000000000
Au     Au     0.25000000000000     0.32000000000000     0.01000000000000
Au     Au     0.75000000000000     0.68000000000000     0.01000000000000
Au     Au     0.12000000000000     0.67000000000000     0.50000000000000
Au     Au     0.62000000000000     0.33000000000000     0.50000000000000
Au     Au     0.38000000000000     0.67000000000000     0.50000000000000
Au     Au     0.88000000000000     0.33000000000000     0.50000000000000
Te     Te     0.25000000000000     0.03000000000000     0.04000000000000
Te     Te     0.75000000000000     0.97000000000000     0.04000000000000
Te     Te     0.25000000000000     0.63000000000000     0.04000000000000
Te     Te     0.75000000000000     0.37000000000000     0.04000000000000
Te     Te     0.00000000000000     0.30000000000000     0.04000000000000
Te     Te     0.50000000000000     0.70000000000000     0.04000000000000
Te     Te     0.50000000000000     0.30000000000000     0.04000000000000
Te     Te     0.00000000000000     0.70000000000000     0.04000000000000
Te     Te     0.13000000000000     0.37000000000000     0.50000000000000
Te     Te     0.63000000000000     0.63000000000000     0.50000000000000
Te     Te     0.37000000000000     0.37000000000000     0.50000000000000
Te     Te     0.87000000000000     0.63000000000000     0.50000000000000
Te     Te     0.12000000000000     0.97000000000000     0.50000000000000
Te     Te     0.62000000000000     0.03000000000000     0.50000000000000
Te     Te     0.38000000000000     0.97000000000000     0.50000000000000
Te     Te     0.88000000000000     0.03000000000000     0.50000000000000
