data_stdin
_audit_creation_method 'critic2-4f1eba8'
_cell_length_a         8.8000000000
_cell_length_b         4.4500000000
_cell_length_c        16.5100000000
_cell_angle_alpha        90.0000
_cell_angle_beta        90.0000
_cell_angle_gamma        90.0000
_cell_volume           646.531600
_space_group_crystal_system orthorhombic
_space_group_IT_number 28
_space_group_name_H-M_alt 'Pma2'
_space_group_name_Hall 'P 2 -2a'
loop_
_space_group_symop_operation_xyz
  'x,y,z'
  '-x,y,-z'
  'x,y,-1/2-z'
  '-x,y,-1/2+z'
loop_
_atom_site_label
_atom_site_type_symbol
_atom_site_fract_x
_atom_site_fract_y
_atom_site_fract_z
Au     Au     0.00000000000000     0.00000000000000     0.00000000000000
Au     Au     0.32000000000000     0.01000000000000     0.25000000000000
Au     Au     0.67000000000000     0.50000000000000     0.12000000000000
Te     Te     0.03000000000000     0.04000000000000     0.25000000000000
Te     Te     0.63000000000000     0.04000000000000     0.25000000000000
Te     Te     0.30000000000000     0.04000000000000     0.00000000000000
Te     Te     0.37000000000000     0.50000000000000     0.13000000000000
Te     Te     0.97000000000000     0.50000000000000     0.12000000000000
