data_stdin
_audit_creation_method 'critic2-4f1eba8'
_cell_length_a         5.5820000000
_cell_length_b         5.5820000000
_cell_length_c         5.5820000000
_cell_angle_alpha        90.0000
_cell_angle_beta        90.0000
_cell_angle_gamma        90.0000
_cell_volume           173.927997
_space_group_crystal_system orthorhombic
_space_group_IT_number 29
_space_group_name_H-M_alt 'Pca2_1'
_space_group_name_Hall 'P 2c -2ac'
loop_
_space_group_symop_operation_xyz
  'x,y,z'
  '-x,-1/2+y,-z'
  '-1/2-x,-1/2+y,z'
  '-1/2+x,y,-z'
loop_
_atom_site_label
_atom_site_type_symbol
_atom_site_fract_x
_atom_site_fract_y
_atom_site_fract_z
Co     Co     0.99000000000000     0.98900000000000     0.00600000000000
As     As     0.38000000000000     0.61700000000000     0.38100000000000
S      S      0.62000000000000     0.38200000000000     0.38000000000000
