data_convert
_cell_volume           689.537208
_symmetry_space_group_name_H-M 'P 1'
_symmetry_Int_Tables_number 1
loop_
_symmetry_equiv_pos_site_id
_symmetry_equiv_pos_as_xyz
1 x,y,z
_cell_length_a         8.8620000000
_cell_length_b         7.6380000000
_cell_length_c        10.1870000000
_cell_angle_alpha        90.0000
_cell_angle_beta        90.0000
_cell_angle_gamma        90.0000
_cell_formula_units_Z 1
loop_
_atom_site_label
_atom_site_type_symbol
_atom_site_fract_x
_atom_site_fract_y
_atom_site_fract_z
K      K      0.08100000000000     0.74500000000000     0.25900000000000
K      K      0.08100000000000     0.24500000000000     0.24100000000000
K      K      0.91900000000000     0.24500000000000     0.75900000000000
K      K      0.91900000000000     0.74500000000000     0.74100000000000
Cu     Cu     0.50000000000000     0.74800000000000     0.00000000000000
Cu     Cu     0.50000000000000     0.24800000000000     0.50000000000000
Cu     Cu     0.50000000000000     0.24800000000000     0.00000000000000
Cu     Cu     0.50000000000000     0.74800000000000     0.50000000000000
Ta     Ta     0.42920000000000     0.00300000000000     0.25200000000000
Ta     Ta     0.42920000000000     0.50300000000000     0.24800000000000
Ta     Ta     0.57080000000000     0.50300000000000     0.75200000000000
Ta     Ta     0.57080000000000     0.00300000000000     0.74800000000000
Ta     Ta     0.80210000000000     0.01800000000000     0.43600000000000
Ta     Ta     0.80210000000000     0.51800000000000     0.06400000000000
Ta     Ta     0.19790000000000     0.51800000000000     0.93600000000000
Ta     Ta     0.19790000000000     0.01800000000000     0.56400000000000
Ta     Ta     0.79910000000000     0.01200000000000     0.06130000000000
Ta     Ta     0.79910000000000     0.51200000000000     0.43870000000000
Ta     Ta     0.20090000000000     0.51200000000000     0.56130000000000
Ta     Ta     0.20090000000000     0.01200000000000     0.93870000000000
O      O      0.00000000000000     0.00000000000000     0.00000000000000
O      O      0.00000000000000     0.50000000000000     0.50000000000000
O      O      0.00000000000000     0.50000000000000     0.00000000000000
O      O      0.00000000000000     0.00000000000000     0.50000000000000
O      O      0.26000000000000     0.03100000000000     0.11800000000000
O      O      0.26000000000000     0.53100000000000     0.38200000000000
O      O      0.74000000000000     0.53100000000000     0.61800000000000
O      O      0.74000000000000     0.03100000000000     0.88200000000000
O      O      0.25900000000000     0.93900000000000     0.40300000000000
O      O      0.25900000000000     0.43900000000000     0.09700000000000
O      O      0.74100000000000     0.43900000000000     0.90300000000000
O      O      0.74100000000000     0.93900000000000     0.59700000000000
O      O      0.57500000000000     0.94200000000000     0.38400000000000
O      O      0.57500000000000     0.44200000000000     0.11600000000000
O      O      0.42500000000000     0.44200000000000     0.88400000000000
O      O      0.42500000000000     0.94200000000000     0.61600000000000
O      O      0.57600000000000     0.53900000000000     0.39200000000000
O      O      0.57600000000000     0.03900000000000     0.10800000000000
O      O      0.42400000000000     0.03900000000000     0.89200000000000
O      O      0.42400000000000     0.53900000000000     0.60800000000000
O      O      0.87500000000000     0.99400000000000     0.25300000000000
O      O      0.87500000000000     0.49400000000000     0.24700000000000
O      O      0.12500000000000     0.49400000000000     0.75300000000000
O      O      0.12500000000000     0.99400000000000     0.74700000000000
O      O      0.40600000000000     0.74200000000000     0.18600000000000
O      O      0.40600000000000     0.24200000000000     0.31400000000000
O      O      0.59400000000000     0.24200000000000     0.68600000000000
O      O      0.59400000000000     0.74200000000000     0.81400000000000
O      O      0.17100000000000     0.75100000000000     0.58900000000000
O      O      0.17100000000000     0.25100000000000     0.91100000000000
O      O      0.82900000000000     0.25100000000000     0.08900000000000
O      O      0.82900000000000     0.75100000000000     0.41100000000000
O      O      0.27100000000000     0.24300000000000     0.54000000000000
O      O      0.27100000000000     0.74300000000000     0.96000000000000
O      O      0.72900000000000     0.74300000000000     0.04000000000000
O      O      0.72900000000000     0.24300000000000     0.46000000000000
