data_convert
_cell_volume           502.183822
_symmetry_space_group_name_H-M 'P 1'
_symmetry_Int_Tables_number 1
loop_
_symmetry_equiv_pos_site_id
_symmetry_equiv_pos_as_xyz
1 x,y,z
_cell_length_a         5.5220000000
_cell_length_b         9.3370000000
_cell_length_c         9.7400000000
_cell_angle_alpha        90.0000
_cell_angle_beta        90.0000
_cell_angle_gamma        90.0000
_cell_formula_units_Z 1
loop_
_atom_site_label
_atom_site_type_symbol
_atom_site_fract_x
_atom_site_fract_y
_atom_site_fract_z
K      K      0.00000000000000     0.00000000000000     0.00000000000000
K      K      0.00000000000000     0.50000000000000     0.50000000000000
Al     Al     0.95450000000000     0.35910000000000     0.11050000000000
Al     Al     0.95450000000000     0.85910000000000     0.38950000000000
Al     Al     0.95450000000000     0.14090000000000     0.61050000000000
Al     Al     0.95450000000000     0.64090000000000     0.88950000000000
P      P      0.20400000000000     0.14700000000000     0.32430000000000
P      P      0.20400000000000     0.64700000000000     0.17570000000000
P      P      0.20400000000000     0.35300000000000     0.82430000000000
P      P      0.20400000000000     0.85300000000000     0.67570000000000
O      O      0.17980000000000     0.48320000000000     0.17890000000000
O      O      0.17980000000000     0.98320000000000     0.32110000000000
O      O      0.17980000000000     0.01680000000000     0.67890000000000
O      O      0.17980000000000     0.51680000000000     0.82110000000000
O      O      0.13820000000000     0.20750000000000     0.46580000000000
O      O      0.13820000000000     0.70750000000000     0.03420000000000
O      O      0.13820000000000     0.29250000000000     0.96580000000000
O      O      0.13820000000000     0.79250000000000     0.53420000000000
O      O      0.03100000000000     0.20750000000000     0.21680000000000
O      O      0.03100000000000     0.70750000000000     0.28320000000000
O      O      0.03100000000000     0.29250000000000     0.71680000000000
O      O      0.03100000000000     0.79250000000000     0.78320000000000
O      O      0.46750000000000     0.18500000000000     0.29180000000000
O      O      0.46750000000000     0.68500000000000     0.20820000000000
O      O      0.46750000000000     0.31500000000000     0.79180000000000
O      O      0.46750000000000     0.81500000000000     0.70820000000000
O      O      0.67930000000000     0.23830000000000     0.04290000000000
O      O      0.67930000000000     0.73830000000000     0.45710000000000
O      O      0.67930000000000     0.26170000000000     0.54290000000000
O      O      0.67930000000000     0.76170000000000     0.95710000000000
O      O      0.72020000000000     0.42850000000000     0.25110000000000
O      O      0.72020000000000     0.92850000000000     0.24890000000000
O      O      0.72020000000000     0.07150000000000     0.75110000000000
O      O      0.72020000000000     0.57150000000000     0.74890000000000
F      F      0.82170000000000     0.00000000000000     0.50000000000000
F      F      0.82170000000000     0.50000000000000     0.00000000000000
H      H      0.59600000000000     0.22600000000000     0.11000000000000
H      H      0.59600000000000     0.72600000000000     0.39000000000000
H      H      0.59600000000000     0.27400000000000     0.61000000000000
H      H      0.59600000000000     0.77400000000000     0.89000000000000
H      H      0.59700000000000     0.23400000000000     0.48600000000000
H      H      0.59700000000000     0.73400000000000     0.01400000000000
H      H      0.59700000000000     0.26600000000000     0.98600000000000
H      H      0.59700000000000     0.76600000000000     0.51400000000000
H      H      0.60600000000000     0.35200000000000     0.26300000000000
H      H      0.60600000000000     0.85200000000000     0.23700000000000
H      H      0.60600000000000     0.14800000000000     0.76300000000000
H      H      0.60600000000000     0.64800000000000     0.73700000000000
H      H      0.60800000000000     0.00200000000000     0.28100000000000
H      H      0.60800000000000     0.50200000000000     0.21900000000000
H      H      0.60800000000000     0.49800000000000     0.78100000000000
H      H      0.60800000000000     0.99800000000000     0.71900000000000
