data_convert
_cell_volume           293.973235
_symmetry_space_group_name_H-M 'P 1'
_symmetry_Int_Tables_number 1
loop_
_symmetry_equiv_pos_site_id
_symmetry_equiv_pos_as_xyz
1 x,y,z
_cell_length_a         7.4127000000
_cell_length_b         6.4404000000
_cell_length_c         6.1577000000
_cell_angle_alpha        90.0000
_cell_angle_beta        90.0000
_cell_angle_gamma        90.0000
_cell_formula_units_Z 1
loop_
_atom_site_label
_atom_site_type_symbol
_atom_site_fract_x
_atom_site_fract_y
_atom_site_fract_z
Cu     Cu     0.00000000000000     0.15330000000000     0.50050000000000
Cu     Cu     0.50000000000000     0.84670000000000     0.00050000000000
Cu     Cu     0.24780000000000     0.32580000000000     0.99190000000000
Cu     Cu     0.74780000000000     0.67420000000000     0.49190000000000
Cu     Cu     0.75220000000000     0.32580000000000     0.99190000000000
Cu     Cu     0.25220000000000     0.67420000000000     0.49190000000000
As     As     0.00000000000000     0.82770000000000     0.00000000000000
As     As     0.50000000000000     0.17230000000000     0.50000000000000
S      S      0.00000000000000     0.82250000000000     0.64110000000000
S      S      0.50000000000000     0.17750000000000     0.14110000000000
S      S      0.00000000000000     0.14740000000000     0.12550000000000
S      S      0.50000000000000     0.85260000000000     0.62550000000000
S      S      0.25650000000000     0.33540000000000     0.61990000000000
S      S      0.75650000000000     0.66460000000000     0.11990000000000
S      S      0.74350000000000     0.33540000000000     0.61990000000000
S      S      0.24350000000000     0.66460000000000     0.11990000000000
