data_stdin
_audit_creation_method 'critic2-4f1eba8'
_cell_length_a         5.8328000000
_cell_length_b         6.5376000000
_cell_length_c         3.1973000000
_cell_angle_alpha        90.0000
_cell_angle_beta        90.0000
_cell_angle_gamma        90.0000
_cell_volume           121.921085
_space_group_crystal_system orthorhombic
_space_group_IT_number 34
_space_group_name_H-M_alt 'Pnn2'
_space_group_name_Hall 'P 2 -2n'
loop_
_space_group_symop_operation_xyz
  'x,y,z'
  '-x,-y,z'
  '-1/2-x,-1/2+y,-1/2+z'
  '-1/2+x,-1/2-y,-1/2+z'
loop_
_atom_site_label
_atom_site_type_symbol
_atom_site_fract_x
_atom_site_fract_y
_atom_site_fract_z
Fe     Fe     0.00000000000000     0.00000000000000     0.00000000000000
Sb     Sb     0.18810000000000     0.35650000000000     0.00950000000000
