data_stdin
_audit_creation_method 'critic2-4f1eba8'
_cell_length_a        27.3410000000
_cell_length_b         7.9710000000
_cell_length_c         7.9760000000
_cell_angle_alpha        90.0000
_cell_angle_beta        90.0000
_cell_angle_gamma        90.0000
_cell_volume          1738.250445
_space_group_crystal_system orthorhombic
_space_group_IT_number 35
_space_group_name_H-M_alt 'Cmm2'
_space_group_name_Hall 'C 2 -2'
loop_
_space_group_symop_operation_xyz
  'x,y,z'
  'x,-y,-z'
  'x,-y,z'
  'x,y,-z'
  'x,-1/2+y,-1/2+z'
  'x,-1/2-y,-1/2-z'
  'x,-1/2-y,-1/2+z'
  'x,-1/2+y,-1/2-z'
loop_
_atom_site_label
_atom_site_type_symbol
_atom_site_fract_x
_atom_site_fract_y
_atom_site_fract_z
Pb     Pb     0.00120000000000     0.00000000000000     0.00000000000000
Pb     Pb     0.32526000000000     0.00000000000000     0.00000000000000
Pb     Pb     0.32043000000000     0.00000000000000     0.50000000000000
Pb     Pb     0.65541000000000     0.00000000000000     0.00000000000000
Pb     Pb     0.65998000000000     0.00000000000000     0.50000000000000
Pb     Pb     0.93079000000000     0.00000000000000     0.50000000000000
Pb     Pb     0.15868000000000     0.25000000000000     0.25000000000000
Pb     Pb     0.82289000000000     0.25000000000000     0.25000000000000
Pb     Pb     0.56002000000000     0.25000000000000     0.25000000000000
I      I      0.90611000000000     0.00000000000000     0.00000000000000
I      I      0.42342000000000     0.25000000000000     0.25000000000000
I      I      0.07382000000000     0.00000000000000     0.50000000000000
O      O      0.10810000000000     0.00000000000000     0.70970000000000
O      O      0.10790000000000     0.21010000000000     0.50000000000000
O      O      0.88400000000000     0.23130000000000     0.00000000000000
O      O      0.88400000000000     0.00000000000000     0.76890000000000
O      O      0.60970000000000     0.24890000000000     0.00000000000000
O      O      0.60850000000000     0.00000000000000     0.24900000000000
O      O      0.42120000000000     0.24930000000000     0.50000000000000
O      O      0.42110000000000     0.00000000000000     0.25070000000000
Cl     Cl     0.19870000000000     0.00000000000000     0.00000000000000
Cl     Cl     0.70260000000000     0.25000000000000     0.25000000000000
Cl     Cl     0.79640000000000     0.00000000000000     0.50000000000000
Cl     Cl     0.78520000000000     0.00000000000000     0.00000000000000
Cl     Cl     0.29810000000000     0.25000000000000     0.25000000000000
Cl     Cl     0.51080000000000     0.00000000000000     0.00000000000000
Cl     Cl     0.98210000000000     0.25000000000000     0.25000000000000
Cl     Cl     0.20880000000000     0.00000000000000     0.50000000000000
Cl     Cl     0.49210000000000     0.00000000000000     0.50000000000000
