data_convert
_cell_volume           668.683547
_symmetry_space_group_name_H-M 'P 1'
_symmetry_Int_Tables_number 1
loop_
_symmetry_equiv_pos_site_id
_symmetry_equiv_pos_as_xyz
1 x,y,z
_cell_length_a        10.6620000000
_cell_length_b         8.7070000000
_cell_length_c         7.2030000000
_cell_angle_alpha        90.0000
_cell_angle_beta        90.0000
_cell_angle_gamma        90.0000
_cell_formula_units_Z 1
loop_
_atom_site_label
_atom_site_type_symbol
_atom_site_fract_x
_atom_site_fract_y
_atom_site_fract_z
Pd     Pd     0.27500000000000     0.00000000000000     0.10800000000000
Pd     Pd     0.27500000000000     0.50000000000000     0.60800000000000
Pd     Pd     0.77500000000000     0.00000000000000     0.89200000000000
Pd     Pd     0.77500000000000     0.50000000000000     0.39200000000000
Pd     Pd     0.27500000000000     0.00000000000000     0.65000000000000
Pd     Pd     0.27500000000000     0.50000000000000     0.15000000000000
Pd     Pd     0.77500000000000     0.00000000000000     0.35000000000000
Pd     Pd     0.77500000000000     0.50000000000000     0.85000000000000
Pd     Pd     0.44700000000000     0.27400000000000     0.12500000000000
Pd     Pd     0.44700000000000     0.77400000000000     0.62500000000000
Pd     Pd     0.94700000000000     0.27400000000000     0.87500000000000
Pd     Pd     0.94700000000000     0.77400000000000     0.37500000000000
Pd     Pd     0.44700000000000     0.72600000000000     0.12500000000000
Pd     Pd     0.44700000000000     0.22600000000000     0.62500000000000
Pd     Pd     0.94700000000000     0.72600000000000     0.87500000000000
Pd     Pd     0.94700000000000     0.22600000000000     0.37500000000000
Bi     Bi     0.00000000000000     0.00000000000000     0.10800000000000
Bi     Bi     0.00000000000000     0.50000000000000     0.60800000000000
Bi     Bi     0.50000000000000     0.00000000000000     0.89200000000000
Bi     Bi     0.50000000000000     0.50000000000000     0.39200000000000
Bi     Bi     0.00000000000000     0.00000000000000     0.65000000000000
Bi     Bi     0.00000000000000     0.50000000000000     0.15000000000000
Bi     Bi     0.50000000000000     0.00000000000000     0.35000000000000
Bi     Bi     0.50000000000000     0.50000000000000     0.85000000000000
Bi     Bi     0.72200000000000     0.27400000000000     0.12500000000000
Bi     Bi     0.72200000000000     0.77400000000000     0.62500000000000
Bi     Bi     0.22200000000000     0.27400000000000     0.87500000000000
Bi     Bi     0.22200000000000     0.77400000000000     0.37500000000000
Bi     Bi     0.72200000000000     0.72600000000000     0.12500000000000
Bi     Bi     0.72200000000000     0.22600000000000     0.62500000000000
Bi     Bi     0.22200000000000     0.72600000000000     0.87500000000000
Bi     Bi     0.22200000000000     0.22600000000000     0.37500000000000
