data_stdin
_audit_creation_method 'critic2-4f1eba8'
_cell_length_a         7.2030000000
_cell_length_b        10.6620000000
_cell_length_c         8.7070000000
_cell_angle_alpha        90.0000
_cell_angle_beta        90.0000
_cell_angle_gamma        90.0000
_cell_volume           668.683547
_space_group_crystal_system orthorhombic
_space_group_IT_number 36
_space_group_name_H-M_alt 'Cmc2_1'
_space_group_name_Hall 'C 2c -2'
loop_
_space_group_symop_operation_xyz
  'x,y,z'
  '-x,-1/2+y,-z'
  'x,y,-z'
  '-x,-1/2+y,z'
  '-1/2+x,y,-1/2+z'
  '-1/2-x,-1/2+y,-1/2-z'
  '-1/2+x,y,-1/2-z'
  '-1/2-x,-1/2+y,-1/2+z'
loop_
_atom_site_label
_atom_site_type_symbol
_atom_site_fract_x
_atom_site_fract_y
_atom_site_fract_z
Pd     Pd     0.10800000000000     0.27500000000000     0.00000000000000
Pd     Pd     0.65000000000000     0.27500000000000     0.00000000000000
Pd     Pd     0.12500000000000     0.44700000000000     0.27400000000000
Bi     Bi     0.10800000000000     0.00000000000000     0.00000000000000
Bi     Bi     0.65000000000000     0.00000000000000     0.00000000000000
Bi     Bi     0.12500000000000     0.72200000000000     0.27400000000000
