data_convert
_cell_volume           387.921261
_symmetry_space_group_name_H-M 'P 1'
_symmetry_Int_Tables_number 1
loop_
_symmetry_equiv_pos_site_id
_symmetry_equiv_pos_as_xyz
1 x,y,z
_cell_length_a        11.0320000000
_cell_length_b         4.9470000000
_cell_length_c         7.1080000000
_cell_angle_alpha        90.0000
_cell_angle_beta        90.0000
_cell_angle_gamma        90.0000
_cell_formula_units_Z 1
loop_
_atom_site_label
_atom_site_type_symbol
_atom_site_fract_x
_atom_site_fract_y
_atom_site_fract_z
Ca     Ca     0.21650000000000     0.50000000000000     0.00400000000000
Ca     Ca     0.71650000000000     0.50000000000000     0.50400000000000
Ca     Ca     0.78350000000000     0.50000000000000     0.00400000000000
Ca     Ca     0.28350000000000     0.50000000000000     0.50400000000000
Na     Na     0.00000000000000     0.00000000000000     0.07370000000000
Na     Na     0.50000000000000     0.00000000000000     0.57370000000000
Na     Na     0.00000000000000     0.50000000000000     0.38780000000000
Na     Na     0.50000000000000     0.50000000000000     0.88780000000000
C      C      0.29610000000000     0.00000000000000     0.83030000000000
C      C      0.79610000000000     0.00000000000000     0.33030000000000
C      C      0.70390000000000     0.00000000000000     0.83030000000000
C      C      0.20390000000000     0.00000000000000     0.33030000000000
O      O      0.19850000000000     0.00000000000000     0.92580000000000
O      O      0.69850000000000     0.00000000000000     0.42580000000000
O      O      0.80150000000000     0.00000000000000     0.92580000000000
O      O      0.30150000000000     0.00000000000000     0.42580000000000
O      O      0.34560000000000     0.22610000000000     0.78480000000000
O      O      0.84560000000000     0.22610000000000     0.28480000000000
O      O      0.65440000000000     0.22610000000000     0.78480000000000
O      O      0.15440000000000     0.22610000000000     0.28480000000000
O      O      0.34560000000000     0.77390000000000     0.78480000000000
O      O      0.84560000000000     0.77390000000000     0.28480000000000
O      O      0.65440000000000     0.77390000000000     0.78480000000000
O      O      0.15440000000000     0.77390000000000     0.28480000000000
C      C      0.00000000000000     0.50000000000000     0.77470000000000
C      C      0.50000000000000     0.50000000000000     0.27470000000000
O      O      0.00000000000000     0.50000000000000     0.95850000000000
O      O      0.50000000000000     0.50000000000000     0.45850000000000
O      O      0.10130000000000     0.50000000000000     0.68890000000000
O      O      0.60130000000000     0.50000000000000     0.18890000000000
O      O      0.89870000000000     0.50000000000000     0.68890000000000
O      O      0.39870000000000     0.50000000000000     0.18890000000000
