data_convert
_cell_volume          1054.785423
_symmetry_space_group_name_H-M 'P 1'
_symmetry_Int_Tables_number 1
loop_
_symmetry_equiv_pos_site_id
_symmetry_equiv_pos_as_xyz
1 x,y,z
_cell_length_a        16.4610000000
_cell_length_b         5.5230000000
_cell_length_c        11.6020000000
_cell_angle_alpha        90.0000
_cell_angle_beta        90.0000
_cell_angle_gamma        90.0000
_cell_formula_units_Z 1
loop_
_atom_site_label
_atom_site_type_symbol
_atom_site_fract_x
_atom_site_fract_y
_atom_site_fract_z
Bi     Bi     0.08550000000000     0.47670000000000     0.39190000000000
Bi     Bi     0.58550000000000     0.97670000000000     0.39190000000000
Bi     Bi     0.41450000000000     0.47670000000000     0.39190000000000
Bi     Bi     0.91450000000000     0.97670000000000     0.39190000000000
Bi     Bi     0.58550000000000     0.47670000000000     0.60810000000000
Bi     Bi     0.08550000000000     0.97670000000000     0.60810000000000
Bi     Bi     0.91450000000000     0.47670000000000     0.60810000000000
Bi     Bi     0.41450000000000     0.97670000000000     0.60810000000000
Bi     Bi     0.25000000000000     0.50630000000000     0.12470000000000
Bi     Bi     0.75000000000000     0.00630000000000     0.12470000000000
Bi     Bi     0.75000000000000     0.50630000000000     0.87530000000000
Bi     Bi     0.25000000000000     0.00630000000000     0.87530000000000
Bi     Bi     0.25000000000000     0.02120000000000     0.37740000000000
Bi     Bi     0.75000000000000     0.52120000000000     0.37740000000000
Bi     Bi     0.75000000000000     0.02120000000000     0.62260000000000
Bi     Bi     0.25000000000000     0.52120000000000     0.62260000000000
Te     Te     0.08040000000000     0.00000000000000     0.13360000000000
Te     Te     0.58040000000000     0.50000000000000     0.13360000000000
Te     Te     0.41960000000000     0.00000000000000     0.13360000000000
Te     Te     0.91960000000000     0.50000000000000     0.13360000000000
Te     Te     0.58040000000000     0.00000000000000     0.86640000000000
Te     Te     0.08040000000000     0.50000000000000     0.86640000000000
Te     Te     0.91960000000000     0.00000000000000     0.86640000000000
Te     Te     0.41960000000000     0.50000000000000     0.86640000000000
O      O      0.04200000000000     0.14000000000000     0.26900000000000
O      O      0.54200000000000     0.64000000000000     0.26900000000000
O      O      0.45800000000000     0.14000000000000     0.26900000000000
O      O      0.95800000000000     0.64000000000000     0.26900000000000
O      O      0.54200000000000     0.14000000000000     0.73100000000000
O      O      0.04200000000000     0.64000000000000     0.73100000000000
O      O      0.95800000000000     0.14000000000000     0.73100000000000
O      O      0.45800000000000     0.64000000000000     0.73100000000000
O      O      0.00000000000000     0.30400000000000     0.50000000000000
O      O      0.50000000000000     0.80400000000000     0.50000000000000
O      O      0.50000000000000     0.30400000000000     0.50000000000000
O      O      0.00000000000000     0.80400000000000     0.50000000000000
O      O      0.14900000000000     0.20900000000000     0.07100000000000
O      O      0.64900000000000     0.70900000000000     0.07100000000000
O      O      0.35100000000000     0.20900000000000     0.07100000000000
O      O      0.85100000000000     0.70900000000000     0.07100000000000
O      O      0.64900000000000     0.20900000000000     0.92900000000000
O      O      0.14900000000000     0.70900000000000     0.92900000000000
O      O      0.85100000000000     0.20900000000000     0.92900000000000
O      O      0.35100000000000     0.70900000000000     0.92900000000000
O      O      0.25000000000000     0.33000000000000     0.29400000000000
O      O      0.75000000000000     0.83000000000000     0.29400000000000
O      O      0.75000000000000     0.33000000000000     0.70600000000000
O      O      0.25000000000000     0.83000000000000     0.70600000000000
O      O      0.15800000000000     0.16000000000000     0.47100000000000
O      O      0.65800000000000     0.66000000000000     0.47100000000000
O      O      0.34200000000000     0.16000000000000     0.47100000000000
O      O      0.84200000000000     0.66000000000000     0.47100000000000
O      O      0.65800000000000     0.16000000000000     0.52900000000000
O      O      0.15800000000000     0.66000000000000     0.52900000000000
O      O      0.84200000000000     0.16000000000000     0.52900000000000
O      O      0.34200000000000     0.66000000000000     0.52900000000000
O      O      0.16100000000000     0.78000000000000     0.20000000000000
O      O      0.66100000000000     0.28000000000000     0.20000000000000
O      O      0.33900000000000     0.78000000000000     0.20000000000000
O      O      0.83900000000000     0.28000000000000     0.20000000000000
O      O      0.66100000000000     0.78000000000000     0.80000000000000
O      O      0.16100000000000     0.28000000000000     0.80000000000000
O      O      0.83900000000000     0.78000000000000     0.80000000000000
O      O      0.33900000000000     0.28000000000000     0.80000000000000
