data_convert
_cell_volume           244.304503
_symmetry_space_group_name_H-M 'P 1'
_symmetry_Int_Tables_number 1
loop_
_symmetry_equiv_pos_site_id
_symmetry_equiv_pos_as_xyz
1 x,y,z
_cell_length_a         4.5026000000
_cell_length_b         8.4905000000
_cell_length_c         6.3905000000
_cell_angle_alpha        90.0000
_cell_angle_beta        90.0000
_cell_angle_gamma        90.0000
_cell_formula_units_Z 1
loop_
_atom_site_label
_atom_site_type_symbol
_atom_site_fract_x
_atom_site_fract_y
_atom_site_fract_z
Ca     Ca     0.50868000000000     0.50000000000000     0.00000000000000
Ca     Ca     0.00868000000000     0.50000000000000     0.50000000000000
Ca     Ca     0.50868000000000     0.00000000000000     0.00000000000000
Ca     Ca     0.00868000000000     0.00000000000000     0.50000000000000
C      C      0.94400000000000     0.25000000000000     0.14432000000000
C      C      0.44400000000000     0.25000000000000     0.64432000000000
C      C      0.94400000000000     0.75000000000000     0.85568000000000
C      C      0.44400000000000     0.75000000000000     0.35568000000000
O      O      0.07718000000000     0.38423000000000     0.16589000000000
O      O      0.57718000000000     0.38423000000000     0.66589000000000
O      O      0.07718000000000     0.88423000000000     0.83411000000000
O      O      0.57718000000000     0.88423000000000     0.33411000000000
O      O      0.07718000000000     0.11577000000000     0.16589000000000
O      O      0.57718000000000     0.11577000000000     0.66589000000000
O      O      0.07718000000000     0.61577000000000     0.83411000000000
O      O      0.57718000000000     0.61577000000000     0.33411000000000
O      O      0.66336000000000     0.25000000000000     0.10559000000000
O      O      0.16336000000000     0.25000000000000     0.60559000000000
O      O      0.66336000000000     0.75000000000000     0.89441000000000
O      O      0.16336000000000     0.75000000000000     0.39441000000000
