data_convert
_cell_volume           221.382612
_symmetry_space_group_name_H-M 'P 1'
_symmetry_Int_Tables_number 1
loop_
_symmetry_equiv_pos_site_id
_symmetry_equiv_pos_as_xyz
1 x,y,z
_cell_length_a         6.1400000000
_cell_length_b         5.9400000000
_cell_length_c         6.0700000000
_cell_angle_alpha        90.0000
_cell_angle_beta        90.0000
_cell_angle_gamma        90.0000
_cell_formula_units_Z 1
loop_
_atom_site_label
_atom_site_type_symbol
_atom_site_fract_x
_atom_site_fract_y
_atom_site_fract_z
S      S      0.00000000000000     0.00000000000000     0.00000000000000
S      S      0.50000000000000     0.50000000000000     0.00000000000000
S      S      0.00000000000000     0.50000000000000     0.50000000000000
S      S      0.50000000000000     0.00000000000000     0.50000000000000
O      O      0.88200000000000     0.15000000000000     0.14000000000000
O      O      0.38200000000000     0.65000000000000     0.14000000000000
O      O      0.88200000000000     0.35000000000000     0.64000000000000
O      O      0.38200000000000     0.85000000000000     0.64000000000000
O      O      0.88200000000000     0.65000000000000     0.36000000000000
O      O      0.38200000000000     0.15000000000000     0.36000000000000
O      O      0.88200000000000     0.85000000000000     0.86000000000000
O      O      0.38200000000000     0.35000000000000     0.86000000000000
