data_convert
_cell_volume           279.196492
_symmetry_space_group_name_H-M 'P 1'
_symmetry_Int_Tables_number 1
loop_
_symmetry_equiv_pos_site_id
_symmetry_equiv_pos_as_xyz
1 x,y,z
_cell_length_a         6.3710000000
_cell_length_b         6.3650000000
_cell_length_c         6.8850000000
_cell_angle_alpha        90.0000
_cell_angle_beta        90.0000
_cell_angle_gamma        90.0000
_cell_formula_units_Z 1
loop_
_atom_site_label
_atom_site_type_symbol
_atom_site_fract_x
_atom_site_fract_y
_atom_site_fract_z
B      B      0.00000000000000     0.00000000000000     0.74600000000000
B      B      0.00000000000000     0.50000000000000     0.24600000000000
B      B      0.50000000000000     0.00000000000000     0.24600000000000
B      B      0.50000000000000     0.50000000000000     0.74600000000000
Ge     Ge     0.00000000000000     0.00000000000000     0.25000000000000
Ge     Ge     0.00000000000000     0.50000000000000     0.75000000000000
Ge     Ge     0.50000000000000     0.00000000000000     0.75000000000000
Ge     Ge     0.50000000000000     0.50000000000000     0.25000000000000
O      O      0.24300000000000     0.00000000000000     0.14200000000000
O      O      0.24300000000000     0.50000000000000     0.64200000000000
O      O      0.74300000000000     0.00000000000000     0.64200000000000
O      O      0.74300000000000     0.50000000000000     0.14200000000000
O      O      0.75700000000000     0.00000000000000     0.14200000000000
O      O      0.75700000000000     0.50000000000000     0.64200000000000
O      O      0.25700000000000     0.00000000000000     0.64200000000000
O      O      0.25700000000000     0.50000000000000     0.14200000000000
O      O      0.00000000000000     0.24700000000000     0.39000000000000
O      O      0.00000000000000     0.74700000000000     0.89000000000000
O      O      0.50000000000000     0.24700000000000     0.89000000000000
O      O      0.50000000000000     0.74700000000000     0.39000000000000
O      O      0.00000000000000     0.75300000000000     0.39000000000000
O      O      0.00000000000000     0.25300000000000     0.89000000000000
O      O      0.50000000000000     0.75300000000000     0.89000000000000
O      O      0.50000000000000     0.25300000000000     0.39000000000000
Li     Li     0.00000000000000     0.00000000000000     0.99200000000000
Li     Li     0.00000000000000     0.50000000000000     0.49200000000000
Li     Li     0.50000000000000     0.00000000000000     0.49200000000000
Li     Li     0.50000000000000     0.50000000000000     0.99200000000000
