data_convert
_cell_volume          1118.464746
_symmetry_space_group_name_H-M 'P 1'
_symmetry_Int_Tables_number 1
loop_
_symmetry_equiv_pos_site_id
_symmetry_equiv_pos_as_xyz
1 x,y,z
_cell_length_a         6.4460000000
_cell_length_b        20.6760000000
_cell_length_c         8.3920000000
_cell_angle_alpha        90.0000
_cell_angle_beta        90.0000
_cell_angle_gamma        90.0000
_cell_formula_units_Z 1
loop_
_atom_site_label
_atom_site_type_symbol
_atom_site_fract_x
_atom_site_fract_y
_atom_site_fract_z
Cu     Cu     0.75000000000000     0.16590000000000     0.36390000000000
Cu     Cu     0.25000000000000     0.16590000000000     0.86390000000000
Cu     Cu     0.25000000000000     0.66590000000000     0.36390000000000
Cu     Cu     0.75000000000000     0.66590000000000     0.86390000000000
Cu     Cu     0.00000000000000     0.41590000000000     0.88610000000000
Cu     Cu     0.50000000000000     0.41590000000000     0.38610000000000
Cu     Cu     0.50000000000000     0.91590000000000     0.88610000000000
Cu     Cu     0.00000000000000     0.91590000000000     0.38610000000000
Cu     Cu     0.00000000000000     0.08410000000000     0.61390000000000
Cu     Cu     0.50000000000000     0.08410000000000     0.11390000000000
Cu     Cu     0.50000000000000     0.58410000000000     0.61390000000000
Cu     Cu     0.00000000000000     0.58410000000000     0.11390000000000
Cu     Cu     0.25000000000000     0.83410000000000     0.13610000000000
Cu     Cu     0.75000000000000     0.83410000000000     0.63610000000000
Cu     Cu     0.75000000000000     0.33410000000000     0.13610000000000
Cu     Cu     0.25000000000000     0.33410000000000     0.63610000000000
V      V      0.23280000000000     0.19880000000000     0.40520000000000
V      V      0.73280000000000     0.19880000000000     0.90520000000000
V      V      0.73280000000000     0.69880000000000     0.40520000000000
V      V      0.23280000000000     0.69880000000000     0.90520000000000
V      V      0.48280000000000     0.44880000000000     0.84480000000000
V      V      0.98280000000000     0.44880000000000     0.34480000000000
V      V      0.98280000000000     0.94880000000000     0.84480000000000
V      V      0.48280000000000     0.94880000000000     0.34480000000000
V      V      0.48280000000000     0.05120000000000     0.65520000000000
V      V      0.98280000000000     0.05120000000000     0.15520000000000
V      V      0.98280000000000     0.55120000000000     0.65520000000000
V      V      0.48280000000000     0.55120000000000     0.15520000000000
V      V      0.73280000000000     0.80120000000000     0.09480000000000
V      V      0.23280000000000     0.80120000000000     0.59480000000000
V      V      0.23280000000000     0.30120000000000     0.09480000000000
V      V      0.73280000000000     0.30120000000000     0.59480000000000
O      O      0.45320000000000     0.16160000000000     0.34830000000000
O      O      0.95320000000000     0.16160000000000     0.84830000000000
O      O      0.95320000000000     0.66160000000000     0.34830000000000
O      O      0.45320000000000     0.66160000000000     0.84830000000000
O      O      0.70320000000000     0.41160000000000     0.90170000000000
O      O      0.20320000000000     0.41160000000000     0.40170000000000
O      O      0.20320000000000     0.91160000000000     0.90170000000000
O      O      0.70320000000000     0.91160000000000     0.40170000000000
O      O      0.70320000000000     0.08840000000000     0.59830000000000
O      O      0.20320000000000     0.08840000000000     0.09830000000000
O      O      0.20320000000000     0.58840000000000     0.59830000000000
O      O      0.70320000000000     0.58840000000000     0.09830000000000
O      O      0.95320000000000     0.83840000000000     0.15170000000000
O      O      0.45320000000000     0.83840000000000     0.65170000000000
O      O      0.45320000000000     0.33840000000000     0.15170000000000
O      O      0.95320000000000     0.33840000000000     0.65170000000000
O      O      0.26760000000000     0.24540000000000     0.56160000000000
O      O      0.76760000000000     0.24540000000000     0.06160000000000
O      O      0.76760000000000     0.74540000000000     0.56160000000000
O      O      0.26760000000000     0.74540000000000     0.06160000000000
O      O      0.51760000000000     0.49540000000000     0.68840000000000
O      O      0.01760000000000     0.49540000000000     0.18840000000000
O      O      0.01760000000000     0.99540000000000     0.68840000000000
O      O      0.51760000000000     0.99540000000000     0.18840000000000
O      O      0.51760000000000     0.00460000000000     0.81160000000000
O      O      0.01760000000000     0.00460000000000     0.31160000000000
O      O      0.01760000000000     0.50460000000000     0.81160000000000
O      O      0.51760000000000     0.50460000000000     0.31160000000000
O      O      0.76760000000000     0.75460000000000     0.93840000000000
O      O      0.26760000000000     0.75460000000000     0.43840000000000
O      O      0.26760000000000     0.25460000000000     0.93840000000000
O      O      0.76760000000000     0.25460000000000     0.43840000000000
O      O      0.02830000000000     0.14400000000000     0.43580000000000
O      O      0.52830000000000     0.14400000000000     0.93580000000000
O      O      0.52830000000000     0.64400000000000     0.43580000000000
O      O      0.02830000000000     0.64400000000000     0.93580000000000
O      O      0.27830000000000     0.39400000000000     0.81420000000000
O      O      0.77830000000000     0.39400000000000     0.31420000000000
O      O      0.77830000000000     0.89400000000000     0.81420000000000
O      O      0.27830000000000     0.89400000000000     0.31420000000000
O      O      0.27830000000000     0.10600000000000     0.68580000000000
O      O      0.77830000000000     0.10600000000000     0.18580000000000
O      O      0.77830000000000     0.60600000000000     0.68580000000000
O      O      0.27830000000000     0.60600000000000     0.18580000000000
O      O      0.52830000000000     0.85600000000000     0.06420000000000
O      O      0.02830000000000     0.85600000000000     0.56420000000000
O      O      0.02830000000000     0.35600000000000     0.06420000000000
O      O      0.52830000000000     0.35600000000000     0.56420000000000
O      O      0.15430000000000     0.25000000000000     0.25000000000000
O      O      0.65430000000000     0.25000000000000     0.75000000000000
O      O      0.65430000000000     0.75000000000000     0.25000000000000
O      O      0.15430000000000     0.75000000000000     0.75000000000000
O      O      0.40430000000000     0.50000000000000     0.00000000000000
O      O      0.90430000000000     0.50000000000000     0.50000000000000
O      O      0.90430000000000     0.00000000000000     0.00000000000000
O      O      0.40430000000000     0.00000000000000     0.50000000000000
