data_convert
_cell_volume           192.899913
_symmetry_space_group_name_H-M 'P 1'
_symmetry_Int_Tables_number 1
loop_
_symmetry_equiv_pos_site_id
_symmetry_equiv_pos_as_xyz
1 x,y,z
_cell_length_a         4.2980000000
_cell_length_b         4.8400000000
_cell_length_c         9.2730000000
_cell_angle_alpha        90.0000
_cell_angle_beta        90.0000
_cell_angle_gamma        90.0000
_cell_formula_units_Z 1
loop_
_atom_site_label
_atom_site_type_symbol
_atom_site_fract_x
_atom_site_fract_y
_atom_site_fract_z
U      U      0.00000000000000     0.00000000000000     0.00000000000000
U      U      0.50000000000000     0.50000000000000     0.50000000000000
C      C      0.38640000000000     0.50000000000000     0.00000000000000
C      C      0.88640000000000     0.00000000000000     0.50000000000000
O      O      0.99510000000000     0.00000000000000     0.81200000000000
O      O      0.49510000000000     0.50000000000000     0.31200000000000
O      O      0.99510000000000     0.00000000000000     0.18800000000000
O      O      0.49510000000000     0.50000000000000     0.68800000000000
O      O      0.50660000000000     0.26380000000000     0.00000000000000
O      O      0.00660000000000     0.76380000000000     0.50000000000000
O      O      0.50660000000000     0.73620000000000     0.00000000000000
O      O      0.00660000000000     0.23620000000000     0.50000000000000
O      O      0.07950000000000     0.50000000000000     0.00000000000000
O      O      0.57950000000000     0.00000000000000     0.50000000000000
