data_convert
_cell_volume           435.714169
_symmetry_space_group_name_H-M 'P 1'
_symmetry_Int_Tables_number 1
loop_
_symmetry_equiv_pos_site_id
_symmetry_equiv_pos_as_xyz
1 x,y,z
_cell_length_a        10.4023000000
_cell_length_b         6.3371000000
_cell_length_c         6.6097000000
_cell_angle_alpha        90.0000
_cell_angle_beta        90.0000
_cell_angle_gamma        90.0000
_cell_formula_units_Z 1
loop_
_atom_site_label
_atom_site_type_symbol
_atom_site_fract_x
_atom_site_fract_y
_atom_site_fract_z
Cr     Cr     0.00000000000000     0.38130000000000     0.00000000000000
Cr     Cr     0.50000000000000     0.88130000000000     0.50000000000000
Cr     Cr     0.50000000000000     0.93920000000000     0.00000000000000
Cr     Cr     0.00000000000000     0.43920000000000     0.50000000000000
Cr     Cr     0.28960000000000     0.34620000000000     0.50000000000000
Cr     Cr     0.78960000000000     0.84620000000000     0.00000000000000
Cr     Cr     0.71040000000000     0.34620000000000     0.50000000000000
Cr     Cr     0.21040000000000     0.84620000000000     0.00000000000000
Cr     Cr     0.29080000000000     0.26810000000000     0.00000000000000
Cr     Cr     0.79080000000000     0.76810000000000     0.50000000000000
Cr     Cr     0.70920000000000     0.26810000000000     0.00000000000000
Cr     Cr     0.20920000000000     0.76810000000000     0.50000000000000
Cr     Cr     0.00000000000000     0.74120000000000     0.20550000000000
Cr     Cr     0.50000000000000     0.24120000000000     0.70550000000000
Cr     Cr     0.00000000000000     0.74120000000000     0.79450000000000
Cr     Cr     0.50000000000000     0.24120000000000     0.29450000000000
Cr     Cr     0.12450000000000     0.12800000000000     0.28920000000000
Cr     Cr     0.62450000000000     0.62800000000000     0.78920000000000
Cr     Cr     0.87550000000000     0.12800000000000     0.28920000000000
Cr     Cr     0.37550000000000     0.62800000000000     0.78920000000000
Cr     Cr     0.12450000000000     0.12800000000000     0.71080000000000
Cr     Cr     0.62450000000000     0.62800000000000     0.21080000000000
Cr     Cr     0.87550000000000     0.12800000000000     0.71080000000000
Cr     Cr     0.37550000000000     0.62800000000000     0.21080000000000
P      P      0.00000000000000     0.02740000000000     0.00000000000000
P      P      0.50000000000000     0.52740000000000     0.50000000000000
P      P      0.50000000000000     0.42740000000000     0.00000000000000
P      P      0.00000000000000     0.92740000000000     0.50000000000000
P      P      0.33370000000000     0.00000000000000     0.26800000000000
P      P      0.83370000000000     0.50000000000000     0.76800000000000
P      P      0.66630000000000     0.00000000000000     0.26800000000000
P      P      0.16630000000000     0.50000000000000     0.76800000000000
P      P      0.33370000000000     0.00000000000000     0.73200000000000
P      P      0.83370000000000     0.50000000000000     0.23200000000000
P      P      0.66630000000000     0.00000000000000     0.73200000000000
P      P      0.16630000000000     0.50000000000000     0.23200000000000
