data_convert
_cell_volume          1435.661357
_symmetry_space_group_name_H-M 'P 1'
_symmetry_Int_Tables_number 1
loop_
_symmetry_equiv_pos_site_id
_symmetry_equiv_pos_as_xyz
1 x,y,z
_cell_length_a        10.0127000000
_cell_length_b        16.7897000000
_cell_length_c         8.5400000000
_cell_angle_alpha        90.0000
_cell_angle_beta        90.0000
_cell_angle_gamma        90.0000
_cell_formula_units_Z 1
loop_
_atom_site_label
_atom_site_type_symbol
_atom_site_fract_x
_atom_site_fract_y
_atom_site_fract_z
Ba     Ba     0.50000000000000     0.15450000000000     0.00000000000000
Ba     Ba     0.00000000000000     0.65450000000000     0.50000000000000
Ba     Ba     0.50000000000000     0.65450000000000     0.00000000000000
Ba     Ba     0.00000000000000     0.15450000000000     0.50000000000000
Na     Na     0.32580000000000     0.90460000000000     0.95790000000000
Na     Na     0.82580000000000     0.40460000000000     0.45790000000000
Na     Na     0.67420000000000     0.40460000000000     0.95790000000000
Na     Na     0.17420000000000     0.90460000000000     0.45790000000000
Na     Na     0.32580000000000     0.40460000000000     0.04210000000000
Na     Na     0.82580000000000     0.90460000000000     0.54210000000000
Na     Na     0.67420000000000     0.90460000000000     0.04210000000000
Na     Na     0.17420000000000     0.40460000000000     0.54210000000000
Al     Al     0.18620000000000     0.06350000000000     0.07060000000000
Al     Al     0.68620000000000     0.56350000000000     0.57060000000000
Al     Al     0.81380000000000     0.56350000000000     0.07060000000000
Al     Al     0.31380000000000     0.06350000000000     0.57060000000000
Al     Al     0.18620000000000     0.56350000000000     0.92940000000000
Al     Al     0.68620000000000     0.06350000000000     0.42940000000000
Al     Al     0.81380000000000     0.06350000000000     0.92940000000000
Al     Al     0.31380000000000     0.56350000000000     0.42940000000000
Al     Al     0.44530000000000     0.31110000000000     0.72070000000000
Al     Al     0.94530000000000     0.81110000000000     0.22070000000000
Al     Al     0.55470000000000     0.81110000000000     0.72070000000000
Al     Al     0.05470000000000     0.31110000000000     0.22070000000000
Al     Al     0.44530000000000     0.81110000000000     0.27930000000000
Al     Al     0.94530000000000     0.31110000000000     0.77930000000000
Al     Al     0.55470000000000     0.31110000000000     0.27930000000000
Al     Al     0.05470000000000     0.81110000000000     0.77930000000000
Si     Si     0.55960000000000     0.99750000000000     0.73480000000000
Si     Si     0.05960000000000     0.49750000000000     0.23480000000000
Si     Si     0.44040000000000     0.49750000000000     0.73480000000000
Si     Si     0.94040000000000     0.99750000000000     0.23480000000000
Si     Si     0.55960000000000     0.49750000000000     0.26520000000000
Si     Si     0.05960000000000     0.99750000000000     0.76520000000000
Si     Si     0.44040000000000     0.99750000000000     0.26520000000000
Si     Si     0.94040000000000     0.49750000000000     0.76520000000000
Si     Si     0.80620000000000     0.24620000000000     0.07890000000000
Si     Si     0.30620000000000     0.74620000000000     0.57890000000000
Si     Si     0.19380000000000     0.74620000000000     0.07890000000000
Si     Si     0.69380000000000     0.24620000000000     0.57890000000000
Si     Si     0.80620000000000     0.74620000000000     0.92110000000000
Si     Si     0.30620000000000     0.24620000000000     0.42110000000000
Si     Si     0.19380000000000     0.24620000000000     0.92110000000000
Si     Si     0.69380000000000     0.74620000000000     0.42110000000000
O      O      0.48460000000000     0.40760000000000     0.78590000000000
O      O      0.98460000000000     0.90760000000000     0.28590000000000
O      O      0.51540000000000     0.90760000000000     0.78590000000000
O      O      0.01540000000000     0.40760000000000     0.28590000000000
O      O      0.48460000000000     0.90760000000000     0.21410000000000
O      O      0.98460000000000     0.40760000000000     0.71410000000000
O      O      0.51540000000000     0.40760000000000     0.21410000000000
O      O      0.01540000000000     0.90760000000000     0.71410000000000
O      O      0.20770000000000     0.15820000000000     0.99440000000000
O      O      0.70770000000000     0.65820000000000     0.49440000000000
O      O      0.79230000000000     0.65820000000000     0.99440000000000
O      O      0.29230000000000     0.15820000000000     0.49440000000000
O      O      0.20770000000000     0.65820000000000     0.00560000000000
O      O      0.70770000000000     0.15820000000000     0.50560000000000
O      O      0.79230000000000     0.15820000000000     0.00560000000000
O      O      0.29230000000000     0.65820000000000     0.50560000000000
O      O      0.14480000000000     0.99490000000000     0.92480000000000
O      O      0.64480000000000     0.49490000000000     0.42480000000000
O      O      0.85520000000000     0.49490000000000     0.92480000000000
O      O      0.35520000000000     0.99490000000000     0.42480000000000
O      O      0.14480000000000     0.49490000000000     0.07520000000000
O      O      0.64480000000000     0.99490000000000     0.57520000000000
O      O      0.85520000000000     0.99490000000000     0.07520000000000
O      O      0.35520000000000     0.49490000000000     0.57520000000000
O      O      0.91300000000000     0.24920000000000     0.22230000000000
O      O      0.41300000000000     0.74920000000000     0.72230000000000
O      O      0.08700000000000     0.74920000000000     0.22230000000000
O      O      0.58700000000000     0.24920000000000     0.72230000000000
O      O      0.91300000000000     0.74920000000000     0.77770000000000
O      O      0.41300000000000     0.24920000000000     0.27770000000000
O      O      0.08700000000000     0.24920000000000     0.77770000000000
O      O      0.58700000000000     0.74920000000000     0.27770000000000
O      O      0.07140000000000     0.05480000000000     0.22580000000000
O      O      0.57140000000000     0.55480000000000     0.72580000000000
O      O      0.92860000000000     0.55480000000000     0.22580000000000
O      O      0.42860000000000     0.05480000000000     0.72580000000000
O      O      0.07140000000000     0.55480000000000     0.77420000000000
O      O      0.57140000000000     0.05480000000000     0.27420000000000
O      O      0.92860000000000     0.05480000000000     0.77420000000000
O      O      0.42860000000000     0.55480000000000     0.27420000000000
O      O      0.35380000000000     0.31120000000000     0.55010000000000
O      O      0.85380000000000     0.81120000000000     0.05010000000000
O      O      0.64620000000000     0.81120000000000     0.55010000000000
O      O      0.14620000000000     0.31120000000000     0.05010000000000
O      O      0.35380000000000     0.81120000000000     0.44990000000000
O      O      0.85380000000000     0.31120000000000     0.94990000000000
O      O      0.64620000000000     0.31120000000000     0.44990000000000
O      O      0.14620000000000     0.81120000000000     0.94990000000000
O      O      0.65530000000000     0.27220000000000     0.12880000000000
O      O      0.15530000000000     0.77220000000000     0.62880000000000
O      O      0.34470000000000     0.77220000000000     0.12880000000000
O      O      0.84470000000000     0.27220000000000     0.62880000000000
O      O      0.65530000000000     0.77220000000000     0.87120000000000
O      O      0.15530000000000     0.27220000000000     0.37120000000000
O      O      0.34470000000000     0.27220000000000     0.87120000000000
O      O      0.84470000000000     0.77220000000000     0.37120000000000
O      O      0.65220000000000     0.03170000000000     0.87819000000000
O      O      0.15220000000000     0.53170000000000     0.37819000000000
O      O      0.34780000000000     0.53170000000000     0.87819000000000
O      O      0.84780000000000     0.03170000000000     0.37819000000000
O      O      0.65220000000000     0.53170000000000     0.12181000000000
O      O      0.15220000000000     0.03170000000000     0.62181000000000
O      O      0.34780000000000     0.03170000000000     0.12181000000000
O      O      0.84780000000000     0.53170000000000     0.62181000000000
