data_convert
_cell_volume          1166.724000
_symmetry_space_group_name_H-M 'P 1'
_symmetry_Int_Tables_number 1
loop_
_symmetry_equiv_pos_site_id
_symmetry_equiv_pos_as_xyz
1 x,y,z
_cell_length_a         8.1000000000
_cell_length_b        13.8500000000
_cell_length_c        10.4000000000
_cell_angle_alpha        90.0000
_cell_angle_beta        90.0000
_cell_angle_gamma        90.0000
_cell_formula_units_Z 1
loop_
_atom_site_label
_atom_site_type_symbol
_atom_site_fract_x
_atom_site_fract_y
_atom_site_fract_z
Na     Na     0.51600000000000     0.25000000000000     0.25000000000000
Na     Na     0.01600000000000     0.75000000000000     0.75000000000000
Na     Na     0.51600000000000     0.25000000000000     0.75000000000000
Na     Na     0.01600000000000     0.75000000000000     0.25000000000000
Na     Na     0.47200000000000     0.07200000000000     0.50000000000000
Na     Na     0.97200000000000     0.57200000000000     0.00000000000000
Na     Na     0.47200000000000     0.42800000000000     0.00000000000000
Na     Na     0.97200000000000     0.92800000000000     0.50000000000000
Ba     Ba     0.00000000000000     0.00200000000000     0.00000000000000
Ba     Ba     0.50000000000000     0.50200000000000     0.50000000000000
Ba     Ba     0.00000000000000     0.49800000000000     0.50000000000000
Ba     Ba     0.50000000000000     0.99800000000000     0.00000000000000
Ti     Ti     0.71690000000000     0.22000000000000     0.00000000000000
Ti     Ti     0.21690000000000     0.72000000000000     0.50000000000000
Ti     Ti     0.71690000000000     0.28000000000000     0.50000000000000
Ti     Ti     0.21690000000000     0.78000000000000     0.00000000000000
Ti     Ti     0.21600000000000     0.22000000000000     0.00000000000000
Ti     Ti     0.71600000000000     0.72000000000000     0.50000000000000
Ti     Ti     0.21600000000000     0.28000000000000     0.50000000000000
Ti     Ti     0.71600000000000     0.78000000000000     0.00000000000000
Si     Si     0.80500000000000     0.10500000000000     0.27800000000000
Si     Si     0.30500000000000     0.60500000000000     0.77800000000000
Si     Si     0.80500000000000     0.39500000000000     0.77800000000000
Si     Si     0.30500000000000     0.89500000000000     0.27800000000000
Si     Si     0.80500000000000     0.10500000000000     0.72200000000000
Si     Si     0.30500000000000     0.60500000000000     0.22200000000000
Si     Si     0.80500000000000     0.39500000000000     0.22200000000000
Si     Si     0.30500000000000     0.89500000000000     0.72200000000000
Si     Si     0.20200000000000     0.10400000000000     0.27800000000000
Si     Si     0.70200000000000     0.60400000000000     0.77800000000000
Si     Si     0.20200000000000     0.39600000000000     0.77800000000000
Si     Si     0.70200000000000     0.89600000000000     0.27800000000000
Si     Si     0.20200000000000     0.10400000000000     0.72200000000000
Si     Si     0.70200000000000     0.60400000000000     0.22200000000000
Si     Si     0.20200000000000     0.39600000000000     0.22200000000000
Si     Si     0.70200000000000     0.89600000000000     0.72200000000000
O      O      0.27300000000000     0.18200000000000     0.36700000000000
O      O      0.77300000000000     0.68200000000000     0.86700000000000
O      O      0.27300000000000     0.31800000000000     0.86700000000000
O      O      0.77300000000000     0.81800000000000     0.36700000000000
O      O      0.27300000000000     0.18200000000000     0.63300000000000
O      O      0.77300000000000     0.68200000000000     0.13300000000000
O      O      0.27300000000000     0.31800000000000     0.13300000000000
O      O      0.77300000000000     0.81800000000000     0.63300000000000
O      O      0.26000000000000     0.11500000000000     0.12800000000000
O      O      0.76000000000000     0.61500000000000     0.62800000000000
O      O      0.26000000000000     0.38500000000000     0.62800000000000
O      O      0.76000000000000     0.88500000000000     0.12800000000000
O      O      0.26000000000000     0.11500000000000     0.87200000000000
O      O      0.76000000000000     0.61500000000000     0.37200000000000
O      O      0.26000000000000     0.38500000000000     0.37200000000000
O      O      0.76000000000000     0.88500000000000     0.87200000000000
O      O      0.20700000000000     0.00100000000000     0.33400000000000
O      O      0.70700000000000     0.50100000000000     0.83400000000000
O      O      0.20700000000000     0.49900000000000     0.83400000000000
O      O      0.70700000000000     0.99900000000000     0.33400000000000
O      O      0.20700000000000     0.00100000000000     0.66600000000000
O      O      0.70700000000000     0.50100000000000     0.16600000000000
O      O      0.20700000000000     0.49900000000000     0.16600000000000
O      O      0.70700000000000     0.99900000000000     0.66600000000000
O      O      0.70700000000000     0.10300000000000     0.12800000000000
O      O      0.20700000000000     0.60300000000000     0.62800000000000
O      O      0.70700000000000     0.39700000000000     0.62800000000000
O      O      0.20700000000000     0.89700000000000     0.12800000000000
O      O      0.70700000000000     0.10300000000000     0.87200000000000
O      O      0.20700000000000     0.60300000000000     0.37200000000000
O      O      0.70700000000000     0.39700000000000     0.37200000000000
O      O      0.20700000000000     0.89700000000000     0.87200000000000
O      O      0.68800000000000     0.19000000000000     0.36700000000000
O      O      0.18800000000000     0.69000000000000     0.86700000000000
O      O      0.68800000000000     0.31000000000000     0.86700000000000
O      O      0.18800000000000     0.81000000000000     0.36700000000000
O      O      0.68800000000000     0.19000000000000     0.63300000000000
O      O      0.18800000000000     0.69000000000000     0.13300000000000
O      O      0.68800000000000     0.31000000000000     0.13300000000000
O      O      0.18800000000000     0.81000000000000     0.63300000000000
O      O      0.96800000000000     0.09200000000000     0.29200000000000
O      O      0.46800000000000     0.59200000000000     0.79200000000000
O      O      0.96800000000000     0.40800000000000     0.79200000000000
O      O      0.46800000000000     0.90800000000000     0.29200000000000
O      O      0.96800000000000     0.09200000000000     0.70800000000000
O      O      0.46800000000000     0.59200000000000     0.20800000000000
O      O      0.96800000000000     0.40800000000000     0.20800000000000
O      O      0.46800000000000     0.90800000000000     0.70800000000000
O      O      0.47700000000000     0.20000000000000     0.00000000000000
O      O      0.97700000000000     0.70000000000000     0.50000000000000
O      O      0.47700000000000     0.30000000000000     0.50000000000000
O      O      0.97700000000000     0.80000000000000     0.00000000000000
O      O      0.96700000000000     0.21500000000000     0.00000000000000
O      O      0.46700000000000     0.71500000000000     0.50000000000000
O      O      0.96700000000000     0.28500000000000     0.50000000000000
O      O      0.46700000000000     0.78500000000000     0.00000000000000
