data_bleh
_cell_volume           476.413205
_symmetry_space_group_name_H-M 'P 1'
_symmetry_Int_Tables_number 1
loop_
_symmetry_equiv_pos_site_id
_symmetry_equiv_pos_as_xyz
1 x,y,z
_cell_length_a        10.8300000000
_cell_length_b         6.2870000000
_cell_length_c         6.9970000000
_cell_angle_alpha        90.0000
_cell_angle_beta        90.0000
_cell_angle_gamma        90.0000
_cell_formula_units_Z 1
loop_
_atom_site_label
_atom_site_type_symbol
_atom_site_fract_x
_atom_site_fract_y
_atom_site_fract_z
Fe     Fe     0.37640000000000     0.12000000000000     0.02950000000000
Fe     Fe     0.87640000000000     0.62000000000000     0.52950000000000
Fe     Fe     0.62360000000000     0.12000000000000     0.97050000000000
Fe     Fe     0.12360000000000     0.62000000000000     0.47050000000000
Fe     Fe     0.37640000000000     0.12000000000000     0.47050000000000
Fe     Fe     0.87640000000000     0.62000000000000     0.97050000000000
Fe     Fe     0.62360000000000     0.12000000000000     0.52950000000000
Fe     Fe     0.12360000000000     0.62000000000000     0.02950000000000
Fe     Fe     0.00000000000000     0.25010000000000     0.00000000000000
Fe     Fe     0.50000000000000     0.75010000000000     0.50000000000000
Fe     Fe     0.00000000000000     0.25010000000000     0.50000000000000
Fe     Fe     0.50000000000000     0.75010000000000     0.00000000000000
Ti     Ti     0.77930000000000     0.27070000000000     0.25000000000000
Ti     Ti     0.27930000000000     0.77070000000000     0.75000000000000
Ti     Ti     0.22070000000000     0.27070000000000     0.75000000000000
Ti     Ti     0.72070000000000     0.77070000000000     0.25000000000000
Ti     Ti     0.20040000000000     0.29640000000000     0.25000000000000
Ti     Ti     0.70040000000000     0.79640000000000     0.75000000000000
Ti     Ti     0.79960000000000     0.29640000000000     0.75000000000000
Ti     Ti     0.29960000000000     0.79640000000000     0.25000000000000
Ti     Ti     0.99790000000000     0.91780000000000     0.25000000000000
Ti     Ti     0.49790000000000     0.41780000000000     0.75000000000000
Ti     Ti     0.00210000000000     0.91780000000000     0.75000000000000
Ti     Ti     0.50210000000000     0.41780000000000     0.25000000000000
Si     Si     0.16750000000000     0.99530000000000     0.00600000000000
Si     Si     0.66750000000000     0.49530000000000     0.50600000000000
Si     Si     0.83250000000000     0.99530000000000     0.99400000000000
Si     Si     0.33250000000000     0.49530000000000     0.49400000000000
Si     Si     0.16750000000000     0.99530000000000     0.49400000000000
Si     Si     0.66750000000000     0.49530000000000     0.99400000000000
Si     Si     0.83250000000000     0.99530000000000     0.50600000000000
Si     Si     0.33250000000000     0.49530000000000     0.00600000000000
Si     Si     0.97470000000000     0.50550000000000     0.25000000000000
Si     Si     0.47470000000000     0.00550000000000     0.75000000000000
Si     Si     0.02530000000000     0.50550000000000     0.75000000000000
Si     Si     0.52530000000000     0.00550000000000     0.25000000000000
