data_convert
_cell_volume           172.067738
_symmetry_space_group_name_H-M 'P 1'
_symmetry_Int_Tables_number 1
loop_
_symmetry_equiv_pos_site_id
_symmetry_equiv_pos_as_xyz
1 x,y,z
_cell_length_a         3.8124000000
_cell_length_b         3.8807000000
_cell_length_c        11.6303000000
_cell_angle_alpha        90.0000
_cell_angle_beta        90.0000
_cell_angle_gamma        90.0000
_cell_formula_units_Z 1
loop_
_atom_site_label
_atom_site_type_symbol
_atom_site_fract_x
_atom_site_fract_y
_atom_site_fract_z
Ba     Ba     0.50000000000000     0.50000000000000     0.18300000000000
Ba     Ba     0.50000000000000     0.50000000000000     0.81700000000000
Y      Y      0.50000000000000     0.50000000000000     0.50000000000000
Cu     Cu     0.00000000000000     0.00000000000000     0.00000000000000
Cu     Cu     0.00000000000000     0.00000000000000     0.35430000000000
Cu     Cu     0.00000000000000     0.00000000000000     0.64570000000000
O      O      0.00000000000000     0.00000000000000     0.15920000000000
O      O      0.00000000000000     0.00000000000000     0.84080000000000
O      O      0.50000000000000     0.00000000000000     0.37640000000000
O      O      0.50000000000000     0.00000000000000     0.62360000000000
O      O      0.00000000000000     0.50000000000000     0.37730000000000
O      O      0.00000000000000     0.50000000000000     0.62270000000000
O      O      0.00000000000000     0.50000000000000     0.00000000000000
