data_stdin
_audit_creation_method 'critic2-4f1eba8'
_cell_length_a        11.2835000000
_cell_length_b        14.1788000000
_cell_length_c        15.7345000000
_cell_angle_alpha        90.0000
_cell_angle_beta        90.0000
_cell_angle_gamma        90.0000
_cell_volume          2517.307424
_space_group_crystal_system orthorhombic
_space_group_IT_number 48
_space_group_name_H-M_alt 'Pnnn'
_space_group_name_Hall 'P 2 2 -1n'
loop_
_space_group_symop_operation_xyz
  'x,y,z'
  '-x,-y,z'
  'x,-y,-z'
  '-x,y,-z'
  '-1/2-x,-1/2-y,-1/2-z'
  '-1/2+x,-1/2+y,-1/2-z'
  '-1/2-x,-1/2+y,-1/2+z'
  '-1/2+x,-1/2-y,-1/2+z'
loop_
_atom_site_label
_atom_site_type_symbol
_atom_site_fract_x
_atom_site_fract_y
_atom_site_fract_z
Zn     Zn     0.00000000000000     0.50000000000000     0.50000000000000
Li     Li     0.00000000000000     0.50000000000000     0.00000000000000
O      O      0.90505000000000     0.57809000000000     0.07292000000000
N      N      0.93644000000000     0.39544000000000     0.42848000000000
C      C      0.96710000000000     0.30982000000000     0.46001000000000
C      C      0.94110000000000     0.22174000000000     0.42290000000000
H      H      0.90120000000000     0.22030000000000     0.36970000000000
C      C      0.97160000000000     0.13740000000000     0.46120000000000
H      H      0.95340000000000     0.07940000000000     0.43400000000000
C      C      0.88400000000000     0.40320000000000     0.34450000000000
H      H      0.89540000000000     0.34240000000000     0.31470000000000
H      H      0.92840000000000     0.45180000000000     0.31230000000000
C      C      0.75160000000000     0.42850000000000     0.34120000000000
C      C      0.73320000000000     0.52830000000000     0.37480000000000
H      H      0.77910000000000     0.57280000000000     0.34020000000000
H      H      0.75990000000000     0.53170000000000     0.43400000000000
H      H      0.64890000000000     0.54460000000000     0.37170000000000
C      C      0.71550000000000     0.42490000000000     0.24720000000000
H      H      0.76210000000000     0.47100000000000     0.21500000000000
H      H      0.63100000000000     0.43990000000000     0.24180000000000
H      H      0.73020000000000     0.36150000000000     0.22470000000000
C      C      0.68020000000000     0.35780000000000     0.39360000000000
H      H      0.69340000000000     0.29410000000000     0.37160000000000
H      H      0.59570000000000     0.37330000000000     0.38990000000000
H      H      0.70570000000000     0.36080000000000     0.45310000000000
C      C      0.78700000000000     0.61230000000000     0.05700000000000
H      H      0.72840000000000     0.56100000000000     0.06400000000000
H      H      0.78070000000000     0.63740000000000     0.99840000000000
C      C      0.76530000000000     0.68890000000000     0.12070000000000
H      H      0.72730000000000     0.74410000000000     0.09330000000000
H      H      0.71340000000000     0.66620000000000     0.16710000000000
C      C      0.88150000000000     0.71360000000000     0.15320000000000
H      H      0.91080000000000     0.77170000000000     0.12520000000000
H      H      0.87760000000000     0.72500000000000     0.21520000000000
C      C      0.95980000000000     0.63570000000000     0.13520000000000
H      H      0.03680000000000     0.65940000000000     0.11380000000000
H      H      0.97440000000000     0.59880000000000     0.18760000000000
