data_stdin
_audit_creation_method 'critic2-4f1eba8'
_cell_length_a        15.7760000000
_cell_length_b        29.9550000000
_cell_length_c        12.8420000000
_cell_angle_alpha        90.0000
_cell_angle_beta        90.0000
_cell_angle_gamma        90.0000
_cell_volume          6068.744967
_space_group_crystal_system orthorhombic
_space_group_IT_number 50
_space_group_name_H-M_alt 'Pban'
_space_group_name_Hall 'P 2 2 -1ab'
loop_
_space_group_symop_operation_xyz
  'x,y,z'
  '-1/2-x,-1/2-y,z'
  'x,-1/2-y,-z'
  '-1/2-x,y,-z'
  '-x,-y,-z'
  '-1/2+x,-1/2+y,-z'
  '-x,-1/2+y,z'
  '-1/2+x,-y,z'
loop_
_atom_site_label
_atom_site_type_symbol
_atom_site_fract_x
_atom_site_fract_y
_atom_site_fract_z
Ru     Ru     0.50743000000000     0.39370400000000     0.61215000000000
P      P      0.44898000000000     0.37338000000000     0.77374000000000
C      C      0.41240000000000     0.35810000000000     0.51640000000000
H      H      0.36350000000000     0.34570000000000     0.54450000000000
C      C      0.48540000000000     0.33690000000000     0.50280000000000
H      H      0.49580000000000     0.30730000000000     0.52060000000000
C      C      0.54280000000000     0.36510000000000     0.45890000000000
H      H      0.59880000000000     0.35820000000000     0.44300000000000
C      C      0.50430000000000     0.40550000000000     0.44200000000000
H      H      0.52840000000000     0.43040000000000     0.41060000000000
C      C      0.42110000000000     0.40210000000000     0.48140000000000
H      H      0.38040000000000     0.42450000000000     0.48370000000000
C      C      0.43550000000000     0.31204000000000     0.77610000000000
H      H      0.40240000000000     0.30500000000000     0.71360000000000
C      C      0.51980000000000     0.28712000000000     0.76240000000000
H      H      0.55100000000000     0.29990000000000     0.70460000000000
H      H      0.55390000000000     0.29050000000000     0.82480000000000
C      C      0.50400000000000     0.23733000000000     0.74180000000000
H      H      0.47500000000000     0.23390000000000     0.67570000000000
H      H      0.55800000000000     0.22190000000000     0.73710000000000
C      C      0.45110000000000     0.21655000000000     0.82770000000000
H      H      0.43810000000000     0.18590000000000     0.80970000000000
H      H      0.48340000000000     0.21640000000000     0.89200000000000
C      C      0.37000000000000     0.24188000000000     0.84390000000000
H      H      0.33920000000000     0.22890000000000     0.90180000000000
H      H      0.33500000000000     0.23910000000000     0.78220000000000
C      C      0.38600000000000     0.29149000000000     0.86620000000000
H      H      0.33240000000000     0.30690000000000     0.87460000000000
H      H      0.41800000000000     0.29460000000000     0.93030000000000
C      C      0.34240000000000     0.39526000000000     0.80400000000000
H      H      0.32930000000000     0.38560000000000     0.87510000000000
C      C      0.33820000000000     0.44632000000000     0.80420000000000
H      H      0.34990000000000     0.45740000000000     0.73470000000000
H      H      0.38120000000000     0.45800000000000     0.85070000000000
C      C      0.25080000000000     0.46270000000000     0.83930000000000
H      H      0.24280000000000     0.45520000000000     0.91210000000000
H      H      0.24870000000000     0.49500000000000     0.83300000000000
C      C      0.18000000000000     0.44260000000000     0.77650000000000
H      H      0.18190000000000     0.45450000000000     0.70630000000000
H      H      0.12610000000000     0.45110000000000     0.80710000000000
C      C      0.18600000000000     0.39216000000000     0.77210000000000
H      H      0.17550000000000     0.38000000000000     0.84090000000000
H      H      0.14260000000000     0.38080000000000     0.72560000000000
C      C      0.27170000000000     0.37692000000000     0.73450000000000
H      H      0.28040000000000     0.38700000000000     0.66360000000000
H      H      0.27380000000000     0.34460000000000     0.73470000000000
C      C      0.51620000000000     0.38762000000000     0.88930000000000
H      H      0.56010000000000     0.36450000000000     0.89220000000000
C      C      0.56400000000000     0.43204000000000     0.88160000000000
H      H      0.52360000000000     0.45650000000000     0.88150000000000
H      H      0.59530000000000     0.43300000000000     0.81670000000000
C      C      0.62540000000000     0.43770000000000     0.97320000000000
H      H      0.66940000000000     0.41510000000000     0.96840000000000
H      H      0.65250000000000     0.46670000000000     0.96820000000000
C      C      0.58270000000000     0.43390000000000     0.07660000000000
H      H      0.54430000000000     0.45890000000000     0.08600000000000
H      H      0.62490000000000     0.43510000000000     0.13150000000000
C      C      0.53370000000000     0.39074000000000     0.08460000000000
H      H      0.50320000000000     0.39010000000000     0.15010000000000
H      H      0.57300000000000     0.36580000000000     0.08400000000000
C      C      0.47080000000000     0.38561000000000     0.99460000000000
H      H      0.44150000000000     0.35730000000000     0.00100000000000
H      H      0.42890000000000     0.40920000000000     0.99820000000000
N      N      0.62350000000000     0.37765000000000     0.67320000000000
C      C      0.68760000000000     0.36520000000000     0.70090000000000
C      C      0.76800000000000     0.34820000000000     0.74160000000000
H      H      0.80580000000000     0.37270000000000     0.75400000000000
H      H      0.79280000000000     0.32820000000000     0.69170000000000
H      H      0.75800000000000     0.33250000000000     0.80560000000000
C      C      0.51050000000000     0.45390000000000     0.64970000000000
O      O      0.50960000000000     0.49156000000000     0.66250000000000
P      P      0.25000000000000     0.25000000000000     0.50000000000000
F      F      0.34850000000000     0.25000000000000     0.50000000000000
F      F      0.24990000000000     0.28793000000000     0.58300000000000
P      P      0.75000000000000     0.25000000000000     0.50000000000000
F      F      0.75000000000000     0.19800000000000     0.50000000000000
F      F      0.81450000000000     0.24950000000000     0.58260000000000
P      P      0.75000000000000     0.25000000000000     0.00000000000000
F      F      0.75000000000000     0.25000000000000     0.88800000000000
F      F      0.81340000000000     0.28800000000000     0.99970000000000
P      P      0.75000000000000     0.47733000000000     0.50000000000000
F      F      0.75000000000000     0.42500000000000     0.50000000000000
F      F      0.75000000000000     0.52840000000000     0.50000000000000
F      F      0.80680000000000     0.47220000000000     0.59050000000000
F      F      0.68200000000000     0.47590000000000     0.57830000000000
