data_convert
_cell_volume           685.542420
_symmetry_space_group_name_H-M 'P 1'
_symmetry_Int_Tables_number 1
loop_
_symmetry_equiv_pos_site_id
_symmetry_equiv_pos_as_xyz
1 x,y,z
_cell_length_a         9.8100000000
_cell_length_b         6.1300000000
_cell_length_c        11.4000000000
_cell_angle_alpha        90.0000
_cell_angle_beta        90.0000
_cell_angle_gamma        90.0000
_cell_formula_units_Z 1
loop_
_atom_site_label
_atom_site_type_symbol
_atom_site_fract_x
_atom_site_fract_y
_atom_site_fract_z
S      S      0.25000000000000     0.25000000000000     0.90000000000000
S      S      0.75000000000000     0.25000000000000     0.90000000000000
S      S      0.25000000000000     0.75000000000000     0.10000000000000
S      S      0.75000000000000     0.75000000000000     0.10000000000000
S      S      0.50000000000000     0.25000000000000     0.10000000000000
S      S      0.50000000000000     0.75000000000000     0.90000000000000
S      S      0.00000000000000     0.25000000000000     0.10000000000000
S      S      0.00000000000000     0.75000000000000     0.90000000000000
S      S      0.16670000000000     0.25000000000000     0.41670000000000
S      S      0.83330000000000     0.25000000000000     0.41670000000000
S      S      0.16670000000000     0.75000000000000     0.58330000000000
S      S      0.83330000000000     0.75000000000000     0.58330000000000
S      S      0.50000000000000     0.25000000000000     0.58330000000000
S      S      0.50000000000000     0.75000000000000     0.41670000000000
Fe     Fe     0.37500000000000     0.06250000000000     0.77780000000000
Fe     Fe     0.62500000000000     0.06250000000000     0.77780000000000
Fe     Fe     0.37500000000000     0.93750000000000     0.22220000000000
Fe     Fe     0.37500000000000     0.43750000000000     0.77780000000000
Fe     Fe     0.62500000000000     0.56250000000000     0.22220000000000
Fe     Fe     0.37500000000000     0.56250000000000     0.22220000000000
Fe     Fe     0.62500000000000     0.43750000000000     0.77780000000000
Fe     Fe     0.62500000000000     0.93750000000000     0.22220000000000
Cu     Cu     0.00000000000000     0.02780000000000     0.75000000000000
Cu     Cu     0.00000000000000     0.97220000000000     0.25000000000000
Cu     Cu     0.00000000000000     0.47220000000000     0.75000000000000
Cu     Cu     0.00000000000000     0.52780000000000     0.25000000000000
