data_convert
_cell_volume           656.349620
_symmetry_space_group_name_H-M 'P 1'
_symmetry_Int_Tables_number 1
loop_
_symmetry_equiv_pos_site_id
_symmetry_equiv_pos_as_xyz
1 x,y,z
_cell_length_a         6.2010000000
_cell_length_b        10.5110000000
_cell_length_c        10.0700000000
_cell_angle_alpha        90.0000
_cell_angle_beta        90.0000
_cell_angle_gamma        90.0000
_cell_formula_units_Z 1
loop_
_atom_site_label
_atom_site_type_symbol
_atom_site_fract_x
_atom_site_fract_y
_atom_site_fract_z
Ba     Ba     0.11102000000000     0.34415000000000     0.91335000000000
Ba     Ba     0.61102000000000     0.15585000000000     0.41335000000000
Ba     Ba     0.38898000000000     0.84415000000000     0.58665000000000
Ba     Ba     0.88898000000000     0.84415000000000     0.41335000000000
Ba     Ba     0.11102000000000     0.15585000000000     0.58665000000000
Ba     Ba     0.61102000000000     0.34415000000000     0.08665000000000
Ba     Ba     0.38898000000000     0.65585000000000     0.91335000000000
Ba     Ba     0.88898000000000     0.65585000000000     0.08665000000000
Ba     Ba     0.25000000000000     0.00000000000000     0.90519000000000
Ba     Ba     0.75000000000000     0.50000000000000     0.40519000000000
Ba     Ba     0.25000000000000     0.50000000000000     0.59481000000000
Ba     Ba     0.75000000000000     0.00000000000000     0.09481000000000
Ga     Ga     0.25000000000000     0.00000000000000     0.22957000000000
Ga     Ga     0.75000000000000     0.50000000000000     0.72957000000000
Ga     Ga     0.25000000000000     0.50000000000000     0.27043000000000
Ga     Ga     0.75000000000000     0.00000000000000     0.77043000000000
Ga     Ga     0.16360000000000     0.25000000000000     0.25000000000000
Ga     Ga     0.66360000000000     0.25000000000000     0.75000000000000
Ga     Ga     0.33640000000000     0.75000000000000     0.25000000000000
Ga     Ga     0.83640000000000     0.75000000000000     0.75000000000000
N      N      0.36120000000000     0.14670000000000     0.12810000000000
N      N      0.86120000000000     0.35330000000000     0.62810000000000
N      N      0.13880000000000     0.64670000000000     0.37190000000000
N      N      0.63880000000000     0.64670000000000     0.62810000000000
N      N      0.36120000000000     0.35330000000000     0.37190000000000
N      N      0.86120000000000     0.14670000000000     0.87190000000000
N      N      0.13880000000000     0.85330000000000     0.12810000000000
N      N      0.63880000000000     0.85330000000000     0.87190000000000
N      N      0.01760000000000     0.09550000000000     0.32940000000000
N      N      0.51760000000000     0.40450000000000     0.82940000000000
N      N      0.48240000000000     0.59550000000000     0.17060000000000
N      N      0.98240000000000     0.59550000000000     0.82940000000000
N      N      0.01760000000000     0.40450000000000     0.17060000000000
N      N      0.51760000000000     0.09550000000000     0.67060000000000
N      N      0.48240000000000     0.90450000000000     0.32940000000000
N      N      0.98240000000000     0.90450000000000     0.67060000000000
