data_stdin
_audit_creation_method 'critic2-4f1eba8'
_cell_length_a         6.2010000000
_cell_length_b        10.0700000000
_cell_length_c        10.5110000000
_cell_angle_alpha        90.0000
_cell_angle_beta        90.0000
_cell_angle_gamma        90.0000
_cell_volume           656.349620
_space_group_crystal_system orthorhombic
_space_group_IT_number 52
_space_group_name_H-M_alt 'Pnna'
_space_group_name_Hall '-P 2a 2bc'
loop_
_space_group_symop_operation_xyz
  'x,y,z'
  '-x,-y,-z'
  '-1/2-x,y,-z'
  '-1/2+x,-y,z'
  'x,-1/2-y,-1/2-z'
  '-x,-1/2+y,-1/2+z'
  '-1/2-x,-1/2-y,-1/2+z'
  '-1/2+x,-1/2+y,-1/2-z'
loop_
_atom_site_label
_atom_site_type_symbol
_atom_site_fract_x
_atom_site_fract_y
_atom_site_fract_z
Ba     Ba     0.11102000000000     0.08665000000000     0.34415000000000
Ba     Ba     0.25000000000000     0.09481000000000     0.00000000000000
Ga     Ga     0.25000000000000     0.77043000000000     0.00000000000000
Ga     Ga     0.16360000000000     0.75000000000000     0.25000000000000
N      N      0.36120000000000     0.87190000000000     0.14670000000000
N      N      0.01760000000000     0.67060000000000     0.09550000000000
