data_convert
_cell_volume           358.019556
_symmetry_space_group_name_H-M 'P 1'
_symmetry_Int_Tables_number 1
loop_
_symmetry_equiv_pos_site_id
_symmetry_equiv_pos_as_xyz
1 x,y,z
_cell_length_a         7.9220000000
_cell_length_b         6.2430000000
_cell_length_c         7.2390000000
_cell_angle_alpha        90.0000
_cell_angle_beta        90.0000
_cell_angle_gamma        90.0000
_cell_formula_units_Z 1
loop_
_atom_site_label
_atom_site_type_symbol
_atom_site_fract_x
_atom_site_fract_y
_atom_site_fract_z
Nb     Nb     0.79810000000000     0.00000000000000     0.50000000000000
Nb     Nb     0.29810000000000     0.50000000000000     0.50000000000000
Nb     Nb     0.70190000000000     0.50000000000000     0.50000000000000
Nb     Nb     0.20190000000000     0.00000000000000     0.50000000000000
Fe     Fe     0.00000000000000     0.35350000000000     0.38360000000000
Fe     Fe     0.50000000000000     0.85350000000000     0.61640000000000
Fe     Fe     0.50000000000000     0.14650000000000     0.38360000000000
Fe     Fe     0.00000000000000     0.64650000000000     0.61640000000000
Te     Te     0.75000000000000     0.25000000000000     0.18080000000000
Te     Te     0.25000000000000     0.75000000000000     0.81920000000000
Te     Te     0.25000000000000     0.25000000000000     0.18080000000000
Te     Te     0.75000000000000     0.75000000000000     0.81920000000000
Te     Te     0.00000000000000     0.24920000000000     0.72570000000000
Te     Te     0.50000000000000     0.74920000000000     0.27430000000000
Te     Te     0.50000000000000     0.25080000000000     0.72570000000000
Te     Te     0.00000000000000     0.75080000000000     0.27430000000000
