data_convert
_cell_volume           248.462711
_symmetry_space_group_name_H-M 'P 1'
_symmetry_Int_Tables_number 1
loop_
_symmetry_equiv_pos_site_id
_symmetry_equiv_pos_as_xyz
1 x,y,z
_cell_length_a         6.6796000000
_cell_length_b         6.0754000000
_cell_length_c         6.1226000000
_cell_angle_alpha        90.0000
_cell_angle_beta        90.0000
_cell_angle_gamma        90.0000
_cell_formula_units_Z 1
loop_
_atom_site_label
_atom_site_type_symbol
_atom_site_fract_x
_atom_site_fract_y
_atom_site_fract_z
Ag     Ag     0.11313000000000     0.00000000000000     0.75000000000000
Ag     Ag     0.88687000000000     0.00000000000000     0.25000000000000
Ag     Ag     0.11313000000000     0.50000000000000     0.25000000000000
Ag     Ag     0.88687000000000     0.50000000000000     0.75000000000000
Cl     Cl     0.63240000000000     0.00000000000000     0.75000000000000
Cl     Cl     0.36760000000000     0.00000000000000     0.25000000000000
Cl     Cl     0.63240000000000     0.50000000000000     0.25000000000000
Cl     Cl     0.36760000000000     0.50000000000000     0.75000000000000
O      O      0.22740000000000     0.35090000000000     0.89440000000000
O      O      0.77260000000000     0.35090000000000     0.39440000000000
O      O      0.22740000000000     0.64910000000000     0.60560000000000
O      O      0.22740000000000     0.14910000000000     0.39440000000000
O      O      0.77260000000000     0.85090000000000     0.60560000000000
O      O      0.22740000000000     0.85090000000000     0.10560000000000
O      O      0.77260000000000     0.14910000000000     0.89440000000000
O      O      0.77260000000000     0.64910000000000     0.10560000000000
