data_convert
_cell_volume           685.551505
_symmetry_space_group_name_H-M 'P 1'
_symmetry_Int_Tables_number 1
loop_
_symmetry_equiv_pos_site_id
_symmetry_equiv_pos_as_xyz
1 x,y,z
_cell_length_a        14.4070000000
_cell_length_b         7.8110000000
_cell_length_c         6.0920000000
_cell_angle_alpha        90.0000
_cell_angle_beta        90.0000
_cell_angle_gamma        90.0000
_cell_formula_units_Z 1
loop_
_atom_site_label
_atom_site_type_symbol
_atom_site_fract_x
_atom_site_fract_y
_atom_site_fract_z
Zn     Zn     0.50000000000000     0.31453000000000     0.00000000000000
Zn     Zn     0.00000000000000     0.31453000000000     0.50000000000000
Zn     Zn     0.00000000000000     0.68547000000000     0.50000000000000
Zn     Zn     0.50000000000000     0.68547000000000     0.00000000000000
Zn     Zn     0.77908000000000     0.78434000000000     0.56494000000000
Zn     Zn     0.72092000000000     0.78434000000000     0.06494000000000
Zn     Zn     0.27908000000000     0.21566000000000     0.93506000000000
Zn     Zn     0.27908000000000     0.78434000000000     0.93506000000000
Zn     Zn     0.72092000000000     0.21566000000000     0.06494000000000
Zn     Zn     0.77908000000000     0.21566000000000     0.56494000000000
Zn     Zn     0.22092000000000     0.78434000000000     0.43506000000000
Zn     Zn     0.22092000000000     0.21566000000000     0.43506000000000
As     As     0.87436000000000     0.50000000000000     0.91312000000000
As     As     0.62564000000000     0.50000000000000     0.41312000000000
As     As     0.37436000000000     0.50000000000000     0.58688000000000
As     As     0.12564000000000     0.50000000000000     0.08688000000000
As     As     0.90126000000000     0.00000000000000     0.22305000000000
As     As     0.59874000000000     0.00000000000000     0.72305000000000
As     As     0.40126000000000     0.00000000000000     0.27695000000000
As     As     0.09874000000000     0.00000000000000     0.77695000000000
O      O      0.06080000000000     0.50000000000000     0.33040000000000
O      O      0.43920000000000     0.50000000000000     0.83040000000000
O      O      0.56080000000000     0.50000000000000     0.16960000000000
O      O      0.93920000000000     0.50000000000000     0.66960000000000
O      O      0.28070000000000     0.00000000000000     0.33490000000000
O      O      0.21930000000000     0.00000000000000     0.83490000000000
O      O      0.78070000000000     0.00000000000000     0.16510000000000
O      O      0.71930000000000     0.00000000000000     0.66510000000000
O      O      0.19970000000000     0.32620000000000     0.15190000000000
O      O      0.30030000000000     0.32620000000000     0.65190000000000
O      O      0.69970000000000     0.67380000000000     0.34810000000000
O      O      0.69970000000000     0.32620000000000     0.34810000000000
O      O      0.30030000000000     0.67380000000000     0.65190000000000
O      O      0.19970000000000     0.67380000000000     0.15190000000000
O      O      0.80030000000000     0.32620000000000     0.84810000000000
O      O      0.80030000000000     0.67380000000000     0.84810000000000
O      O      0.39650000000000     0.17360000000000     0.09040000000000
O      O      0.10350000000000     0.17360000000000     0.59040000000000
O      O      0.89650000000000     0.82640000000000     0.40960000000000
O      O      0.89650000000000     0.17360000000000     0.40960000000000
O      O      0.10350000000000     0.82640000000000     0.59040000000000
O      O      0.39650000000000     0.82640000000000     0.09040000000000
O      O      0.60350000000000     0.17360000000000     0.90960000000000
O      O      0.60350000000000     0.82640000000000     0.90960000000000
