data_convert
_cell_volume          1196.286759
_symmetry_space_group_name_H-M 'P 1'
_symmetry_Int_Tables_number 1
loop_
_symmetry_equiv_pos_site_id
_symmetry_equiv_pos_as_xyz
1 x,y,z
_cell_length_a        15.2230000000
_cell_length_b         7.6660000000
_cell_length_c        10.2510000000
_cell_angle_alpha        90.0000
_cell_angle_beta        90.0000
_cell_angle_gamma        90.0000
_cell_formula_units_Z 1
loop_
_atom_site_label
_atom_site_type_symbol
_atom_site_fract_x
_atom_site_fract_y
_atom_site_fract_z
Zn     Zn     0.38500000000000     0.34930000000000     0.49420000000000
Zn     Zn     0.11500000000000     0.84930000000000     0.49420000000000
Zn     Zn     0.88500000000000     0.15070000000000     0.50580000000000
Zn     Zn     0.38500000000000     0.84930000000000     0.00580000000000
Zn     Zn     0.61500000000000     0.15070000000000     0.99420000000000
Zn     Zn     0.88500000000000     0.65070000000000     0.99420000000000
Zn     Zn     0.11500000000000     0.34930000000000     0.00580000000000
Zn     Zn     0.61500000000000     0.65070000000000     0.50580000000000
Zn     Zn     0.46910000000000     0.10160000000000     0.72340000000000
Zn     Zn     0.03090000000000     0.60160000000000     0.72340000000000
Zn     Zn     0.96910000000000     0.39840000000000     0.27660000000000
Zn     Zn     0.46910000000000     0.60160000000000     0.77660000000000
Zn     Zn     0.53090000000000     0.39840000000000     0.22340000000000
Zn     Zn     0.96910000000000     0.89840000000000     0.22340000000000
Zn     Zn     0.03090000000000     0.10160000000000     0.77660000000000
Zn     Zn     0.53090000000000     0.89840000000000     0.27660000000000
Se     Se     0.59090000000000     0.22410000000000     0.46360000000000
Se     Se     0.90910000000000     0.72410000000000     0.46360000000000
Se     Se     0.09090000000000     0.27590000000000     0.53640000000000
Se     Se     0.59090000000000     0.72410000000000     0.03640000000000
Se     Se     0.40910000000000     0.27590000000000     0.96360000000000
Se     Se     0.09090000000000     0.77590000000000     0.96360000000000
Se     Se     0.90910000000000     0.22410000000000     0.03640000000000
Se     Se     0.40910000000000     0.77590000000000     0.53640000000000
Cl     Cl     0.37780000000000     0.43200000000000     0.28450000000000
Cl     Cl     0.12220000000000     0.93200000000000     0.28450000000000
Cl     Cl     0.87780000000000     0.06800000000000     0.71550000000000
Cl     Cl     0.37780000000000     0.93200000000000     0.21550000000000
Cl     Cl     0.62220000000000     0.06800000000000     0.78450000000000
Cl     Cl     0.87780000000000     0.56800000000000     0.78450000000000
Cl     Cl     0.12220000000000     0.43200000000000     0.21550000000000
Cl     Cl     0.62220000000000     0.56800000000000     0.71550000000000
Cl     Cl     0.29760000000000     0.15990000000000     0.59100000000000
Cl     Cl     0.20240000000000     0.65990000000000     0.59100000000000
Cl     Cl     0.79760000000000     0.34010000000000     0.40900000000000
Cl     Cl     0.29760000000000     0.65990000000000     0.90900000000000
Cl     Cl     0.70240000000000     0.34010000000000     0.09100000000000
Cl     Cl     0.79760000000000     0.84010000000000     0.09100000000000
Cl     Cl     0.20240000000000     0.15990000000000     0.90900000000000
Cl     Cl     0.70240000000000     0.84010000000000     0.40900000000000
O      O      0.58630000000000     0.43200000000000     0.40980000000000
O      O      0.91370000000000     0.93200000000000     0.40980000000000
O      O      0.08630000000000     0.06800000000000     0.59020000000000
O      O      0.58630000000000     0.93200000000000     0.09020000000000
O      O      0.41370000000000     0.06800000000000     0.90980000000000
O      O      0.08630000000000     0.56800000000000     0.90980000000000
O      O      0.91370000000000     0.43200000000000     0.09020000000000
O      O      0.41370000000000     0.56800000000000     0.59020000000000
O      O      0.49470000000000     0.20970000000000     0.54730000000000
O      O      0.00530000000000     0.70970000000000     0.54730000000000
O      O      0.99470000000000     0.29030000000000     0.45270000000000
O      O      0.49470000000000     0.70970000000000     0.95270000000000
O      O      0.50530000000000     0.29030000000000     0.04730000000000
O      O      0.99470000000000     0.79030000000000     0.04730000000000
O      O      0.00530000000000     0.20970000000000     0.95270000000000
O      O      0.50530000000000     0.79030000000000     0.45270000000000
O      O      0.55750000000000     0.14760000000000     0.31640000000000
O      O      0.94250000000000     0.64760000000000     0.31640000000000
O      O      0.05750000000000     0.35240000000000     0.68360000000000
O      O      0.55750000000000     0.64760000000000     0.18360000000000
O      O      0.44250000000000     0.35240000000000     0.81640000000000
O      O      0.05750000000000     0.85240000000000     0.81640000000000
O      O      0.94250000000000     0.14760000000000     0.18360000000000
O      O      0.44250000000000     0.85240000000000     0.68360000000000
