data_convert
_cell_volume           332.263344
_symmetry_space_group_name_H-M 'P 1'
_symmetry_Int_Tables_number 1
loop_
_symmetry_equiv_pos_site_id
_symmetry_equiv_pos_as_xyz
1 x,y,z
_cell_length_a        12.4600000000
_cell_length_b         5.4200000000
_cell_length_c         4.9200000000
_cell_angle_alpha        90.0000
_cell_angle_beta        90.0000
_cell_angle_gamma        90.0000
_cell_formula_units_Z 1
loop_
_atom_site_label
_atom_site_type_symbol
_atom_site_fract_x
_atom_site_fract_y
_atom_site_fract_z
Sb     Sb     0.20700000000000     0.17500000000000     0.12150000000000
Sb     Sb     0.29300000000000     0.67500000000000     0.12150000000000
Sb     Sb     0.70700000000000     0.32500000000000     0.87850000000000
Sb     Sb     0.20700000000000     0.67500000000000     0.37850000000000
Sb     Sb     0.79300000000000     0.32500000000000     0.62150000000000
Sb     Sb     0.70700000000000     0.82500000000000     0.62150000000000
Sb     Sb     0.29300000000000     0.17500000000000     0.37850000000000
Sb     Sb     0.79300000000000     0.82500000000000     0.87850000000000
O      O      0.25000000000000     0.92500000000000     0.25000000000000
O      O      0.25000000000000     0.42500000000000     0.25000000000000
O      O      0.75000000000000     0.57500000000000     0.75000000000000
O      O      0.75000000000000     0.07500000000000     0.75000000000000
O      O      0.15600000000000     0.17500000000000     0.89000000000000
O      O      0.34400000000000     0.67500000000000     0.89000000000000
O      O      0.65600000000000     0.32500000000000     0.11000000000000
O      O      0.15600000000000     0.67500000000000     0.61000000000000
O      O      0.84400000000000     0.32500000000000     0.39000000000000
O      O      0.65600000000000     0.82500000000000     0.39000000000000
O      O      0.34400000000000     0.17500000000000     0.61000000000000
O      O      0.84400000000000     0.82500000000000     0.11000000000000
