data_stdin
_audit_creation_method 'critic2-4f1eba8'
_cell_length_a         5.4904000000
_cell_length_b         4.7528000000
_cell_length_c         5.8931000000
_cell_angle_alpha        90.0000
_cell_angle_beta        90.0000
_cell_angle_gamma        90.0000
_cell_volume           153.779107
_space_group_crystal_system orthorhombic
_space_group_IT_number 57
_space_group_name_H-M_alt 'Pbcm'
_space_group_name_Hall '-P 2c 2b'
loop_
_space_group_symop_operation_xyz
  'x,y,z'
  '-x,-y,-z'
  '-x,-1/2+y,-z'
  'x,-1/2-y,z'
  '-1/2-x,-y,z'
  '-1/2+x,y,-z'
  '-1/2+x,-1/2-y,-z'
  '-1/2-x,-1/2+y,z'
loop_
_atom_site_label
_atom_site_type_symbol
_atom_site_fract_x
_atom_site_fract_y
_atom_site_fract_z
Pb     Pb     0.98840000000000     0.25000000000000     0.22970000000000
O      O      0.09170000000000     0.25000000000000     0.86530000000000
