data_convert
_cell_volume           168.517440
_symmetry_space_group_name_H-M 'P 1'
_symmetry_Int_Tables_number 1
loop_
_symmetry_equiv_pos_site_id
_symmetry_equiv_pos_as_xyz
1 x,y,z
_cell_length_a         4.2000000000
_cell_length_b         6.2400000000
_cell_length_c         6.4300000000
_cell_angle_alpha        90.0000
_cell_angle_beta        90.0000
_cell_angle_gamma        90.0000
_cell_formula_units_Z 1
loop_
_atom_site_label
_atom_site_type_symbol
_atom_site_fract_x
_atom_site_fract_y
_atom_site_fract_z
Ca     Ca     0.00000000000000     0.00000000000000     0.00000000000000
Ca     Ca     0.50000000000000     0.50000000000000     0.50000000000000
Cl     Cl     0.00000000000000     0.27500000000000     0.32500000000000
Cl     Cl     0.50000000000000     0.77500000000000     0.17500000000000
Cl     Cl     0.50000000000000     0.22500000000000     0.82500000000000
Cl     Cl     0.00000000000000     0.72500000000000     0.67500000000000
