data_stdin
_audit_creation_method 'critic2-4f1eba8'
_cell_length_a         8.5990000000
_cell_length_b         5.9381000000
_cell_length_c         6.3173000000
_cell_angle_alpha        90.0000
_cell_angle_beta        90.0000
_cell_angle_gamma        90.0000
_cell_volume           322.572216
_space_group_crystal_system orthorhombic
_space_group_IT_number 59
_space_group_name_H-M_alt 'Pmmn'
_space_group_name_Hall 'P 2 2ab -1ab'
loop_
_space_group_symop_operation_xyz
  'x,y,z'
  '-1/2-x,-1/2-y,z'
  '-x,-1/2+y,-z'
  '-1/2+x,-y,-z'
  '-x,-y,-z'
  '-1/2+x,-1/2+y,-z'
  'x,-1/2-y,z'
  '-1/2-x,y,z'
loop_
_atom_site_label
_atom_site_type_symbol
_atom_site_fract_x
_atom_site_fract_y
_atom_site_fract_z
Pb     Pb     0.25000000000000     0.75000000000000     0.80690000000000
Pb     Pb     0.25000000000000     0.25000000000000     0.25710000000000
Te     Te     0.95580000000000     0.25000000000000     0.66560000000000
Pd     Pd     0.25000000000000     0.25000000000000     0.78260000000000
Pd     Pd     0.00000000000000     0.00000000000000     0.00000000000000
