data_convert
_cell_volume           446.786048
_symmetry_space_group_name_H-M 'P 1'
_symmetry_Int_Tables_number 1
loop_
_symmetry_equiv_pos_site_id
_symmetry_equiv_pos_as_xyz
1 x,y,z
_cell_length_a         5.2040000000
_cell_length_b         5.7520000000
_cell_length_c        14.9260000000
_cell_angle_alpha        90.0000
_cell_angle_beta        90.0000
_cell_angle_gamma        90.0000
_cell_formula_units_Z 1
loop_
_atom_site_label
_atom_site_type_symbol
_atom_site_fract_x
_atom_site_fract_y
_atom_site_fract_z
Ca     Ca     0.25000000000000     0.22440000000000     0.00000000000000
Ca     Ca     0.75000000000000     0.77560000000000     0.00000000000000
Ca     Ca     0.25000000000000     0.72440000000000     0.50000000000000
Ca     Ca     0.75000000000000     0.27560000000000     0.50000000000000
Nb     Nb     0.70130000000000     0.31660000000000     0.16530000000000
Nb     Nb     0.20130000000000     0.68340000000000     0.16530000000000
Nb     Nb     0.79870000000000     0.31660000000000     0.83470000000000
Nb     Nb     0.70130000000000     0.81660000000000     0.33470000000000
Nb     Nb     0.29870000000000     0.18340000000000     0.66530000000000
Nb     Nb     0.79870000000000     0.81660000000000     0.66530000000000
Nb     Nb     0.20130000000000     0.18340000000000     0.33470000000000
Nb     Nb     0.29870000000000     0.68340000000000     0.83470000000000
O      O      0.59600000000000     0.09970000000000     0.08930000000000
O      O      0.09600000000000     0.90030000000000     0.08930000000000
O      O      0.90400000000000     0.09970000000000     0.91070000000000
O      O      0.59600000000000     0.59970000000000     0.41070000000000
O      O      0.40400000000000     0.40030000000000     0.58930000000000
O      O      0.90400000000000     0.59970000000000     0.58930000000000
O      O      0.09600000000000     0.40030000000000     0.41070000000000
O      O      0.40400000000000     0.90030000000000     0.91070000000000
O      O      0.99440000000000     0.42800000000000     0.10030000000000
O      O      0.49440000000000     0.57200000000000     0.10030000000000
O      O      0.50560000000000     0.42800000000000     0.89970000000000
O      O      0.99440000000000     0.92800000000000     0.39970000000000
O      O      0.00560000000000     0.07200000000000     0.60030000000000
O      O      0.50560000000000     0.92800000000000     0.60030000000000
O      O      0.49440000000000     0.07200000000000     0.39970000000000
O      O      0.00560000000000     0.57200000000000     0.89970000000000
O      O      0.87340000000000     0.13510000000000     0.25760000000000
O      O      0.37340000000000     0.86490000000000     0.25760000000000
O      O      0.62660000000000     0.13510000000000     0.74240000000000
O      O      0.87340000000000     0.63510000000000     0.24240000000000
O      O      0.12660000000000     0.36490000000000     0.75760000000000
O      O      0.62660000000000     0.63510000000000     0.75760000000000
O      O      0.37340000000000     0.36490000000000     0.24240000000000
O      O      0.12660000000000     0.86490000000000     0.74240000000000
