data_convert
_cell_volume           256.844129
_symmetry_space_group_name_H-M 'P 1'
_symmetry_Int_Tables_number 1
loop_
_symmetry_equiv_pos_site_id
_symmetry_equiv_pos_as_xyz
1 x,y,z
_cell_length_a         5.4490000000
_cell_length_b         9.1740000000
_cell_length_c         5.1380000000
_cell_angle_alpha        90.0000
_cell_angle_beta        90.0000
_cell_angle_gamma        90.0000
_cell_formula_units_Z 1
loop_
_atom_site_label
_atom_site_type_symbol
_atom_site_fract_x
_atom_site_fract_y
_atom_site_fract_z
Ti     Ti     0.09720000000000     0.12890000000000     0.13720000000000
Ti     Ti     0.40280000000000     0.12890000000000     0.63720000000000
Ti     Ti     0.59720000000000     0.87110000000000     0.36280000000000
Ti     Ti     0.59720000000000     0.37110000000000     0.13720000000000
Ti     Ti     0.40280000000000     0.62890000000000     0.86280000000000
Ti     Ti     0.09720000000000     0.62890000000000     0.36280000000000
Ti     Ti     0.90280000000000     0.37110000000000     0.63720000000000
Ti     Ti     0.90280000000000     0.87110000000000     0.86280000000000
O      O      0.14910000000000     0.00950000000000     0.81650000000000
O      O      0.35090000000000     0.00950000000000     0.31650000000000
O      O      0.64910000000000     0.99050000000000     0.68350000000000
O      O      0.64910000000000     0.49050000000000     0.81650000000000
O      O      0.35090000000000     0.50950000000000     0.18350000000000
O      O      0.14910000000000     0.50950000000000     0.68350000000000
O      O      0.85090000000000     0.49050000000000     0.31650000000000
O      O      0.85090000000000     0.99050000000000     0.18350000000000
O      O      0.11100000000000     0.23140000000000     0.46340000000000
O      O      0.38900000000000     0.23140000000000     0.96340000000000
O      O      0.61100000000000     0.76860000000000     0.03660000000000
O      O      0.61100000000000     0.26860000000000     0.46340000000000
O      O      0.38900000000000     0.73140000000000     0.53660000000000
O      O      0.11100000000000     0.73140000000000     0.03660000000000
O      O      0.88900000000000     0.26860000000000     0.96340000000000
O      O      0.88900000000000     0.76860000000000     0.53660000000000
