data_convert
_cell_volume           310.868586
_symmetry_space_group_name_H-M 'P 1'
_symmetry_Int_Tables_number 1
loop_
_symmetry_equiv_pos_site_id
_symmetry_equiv_pos_as_xyz
1 x,y,z
_cell_length_a         7.6080000000
_cell_length_b         4.5250000000
_cell_length_c         9.0300000000
_cell_angle_alpha        90.0000
_cell_angle_beta        90.0000
_cell_angle_gamma        90.0000
_cell_formula_units_Z 1
loop_
_atom_site_label
_atom_site_type_symbol
_atom_site_fract_x
_atom_site_fract_y
_atom_site_fract_z
Pb     Pb     0.26170000000000     0.25000000000000     0.09560000000000
Pb     Pb     0.73830000000000     0.75000000000000     0.90440000000000
Pb     Pb     0.23830000000000     0.75000000000000     0.59560000000000
Pb     Pb     0.76170000000000     0.25000000000000     0.40440000000000
Cl     Cl     0.86100000000000     0.25000000000000     0.07420000000000
Cl     Cl     0.13900000000000     0.75000000000000     0.92580000000000
Cl     Cl     0.63900000000000     0.75000000000000     0.57420000000000
Cl     Cl     0.36100000000000     0.25000000000000     0.42580000000000
Cl     Cl     0.47680000000000     0.25000000000000     0.83700000000000
Cl     Cl     0.52320000000000     0.75000000000000     0.16300000000000
Cl     Cl     0.02320000000000     0.75000000000000     0.33700000000000
Cl     Cl     0.97680000000000     0.25000000000000     0.66300000000000
