data_bleh
_cell_volume           227.974138
_symmetry_space_group_name_H-M 'P 1'
_symmetry_Int_Tables_number 1
loop_
_symmetry_equiv_pos_site_id
_symmetry_equiv_pos_as_xyz
1 x,y,z
_cell_length_a         5.4760000000
_cell_length_b         4.4270000000
_cell_length_c         9.4040000000
_cell_angle_alpha        90.0000
_cell_angle_beta        90.0000
_cell_angle_gamma        90.0000
_cell_formula_units_Z 1
loop_
_atom_site_label
_atom_site_type_symbol
_atom_site_fract_x
_atom_site_fract_y
_atom_site_fract_z
Al     Al     0.00000000000000     0.00000000000000     0.00000000000000
Al     Al     0.50000000000000     0.00000000000000     0.00000000000000
Al     Al     0.50000000000000     0.50000000000000     0.50000000000000
Al     Al     0.00000000000000     0.50000000000000     0.50000000000000
Al     Al     0.25000000000000     0.99405000000000     0.27319000000000
Al     Al     0.75000000000000     0.00595000000000     0.72681000000000
Al     Al     0.75000000000000     0.49405000000000     0.22681000000000
Al     Al     0.25000000000000     0.50595000000000     0.77319000000000
Be     Be     0.25000000000000     0.43347000000000     0.09294000000000
Be     Be     0.75000000000000     0.56653000000000     0.90706000000000
Be     Be     0.75000000000000     0.93347000000000     0.40706000000000
Be     Be     0.25000000000000     0.06653000000000     0.59294000000000
O      O      0.25000000000000     0.79016000000000     0.09051000000000
O      O      0.75000000000000     0.20984000000000     0.90949000000000
O      O      0.75000000000000     0.29016000000000     0.40949000000000
O      O      0.25000000000000     0.70984000000000     0.59051000000000
O      O      0.25000000000000     0.24097000000000     0.43343000000000
O      O      0.75000000000000     0.75903000000000     0.56657000000000
O      O      0.75000000000000     0.74097000000000     0.06657000000000
O      O      0.25000000000000     0.25903000000000     0.93343000000000
O      O      0.01718000000000     0.25850000000000     0.16318000000000
O      O      0.48282000000000     0.25850000000000     0.16318000000000
O      O      0.51718000000000     0.74150000000000     0.83682000000000
O      O      0.51718000000000     0.75850000000000     0.33682000000000
O      O      0.48282000000000     0.24150000000000     0.66318000000000
O      O      0.01718000000000     0.24150000000000     0.66318000000000
O      O      0.98282000000000     0.75850000000000     0.33682000000000
O      O      0.98282000000000     0.74150000000000     0.83682000000000
