data_convert
_cell_volume           541.530066
_symmetry_space_group_name_H-M 'P 1'
_symmetry_Int_Tables_number 1
loop_
_symmetry_equiv_pos_site_id
_symmetry_equiv_pos_as_xyz
1 x,y,z
_cell_length_a         5.4310000000
_cell_length_b         9.0490000000
_cell_length_c        11.0190000000
_cell_angle_alpha        90.0000
_cell_angle_beta        90.0000
_cell_angle_gamma        90.0000
_cell_formula_units_Z 1
loop_
_atom_site_label
_atom_site_type_symbol
_atom_site_fract_x
_atom_site_fract_y
_atom_site_fract_z
K      K      0.25000000000000     0.50000000000000     0.16990000000000
K      K      0.25000000000000     0.00000000000000     0.66990000000000
K      K      0.75000000000000     0.50000000000000     0.83010000000000
K      K      0.75000000000000     0.00000000000000     0.33010000000000
Fe     Fe     0.00000000000000     0.35020000000000     0.50000000000000
Fe     Fe     0.00000000000000     0.85020000000000     0.00000000000000
Fe     Fe     0.50000000000000     0.35020000000000     0.50000000000000
Fe     Fe     0.50000000000000     0.85020000000000     0.00000000000000
Fe     Fe     0.50000000000000     0.64980000000000     0.50000000000000
Fe     Fe     0.50000000000000     0.14980000000000     0.00000000000000
Fe     Fe     0.00000000000000     0.64980000000000     0.50000000000000
Fe     Fe     0.00000000000000     0.14980000000000     0.00000000000000
S      S      0.25000000000000     0.50000000000000     0.61910000000000
S      S      0.25000000000000     0.00000000000000     0.11910000000000
S      S      0.75000000000000     0.50000000000000     0.38090000000000
S      S      0.75000000000000     0.00000000000000     0.88090000000000
S      S      0.25000000000000     0.21740000000000     0.38590000000000
S      S      0.25000000000000     0.71740000000000     0.88590000000000
S      S      0.75000000000000     0.21740000000000     0.61410000000000
S      S      0.75000000000000     0.71740000000000     0.11410000000000
S      S      0.25000000000000     0.78260000000000     0.38590000000000
S      S      0.25000000000000     0.28260000000000     0.88590000000000
S      S      0.75000000000000     0.78260000000000     0.61410000000000
S      S      0.75000000000000     0.28260000000000     0.11410000000000
