data_stdin
_audit_creation_method 'critic2-4f1eba8'
_cell_length_a         4.5240000000
_cell_length_b         4.5230000000
_cell_length_c         7.6610000000
_cell_angle_alpha        90.0000
_cell_angle_beta        90.0000
_cell_angle_gamma        90.0000
_cell_volume           156.759780
_space_group_crystal_system orthorhombic
_space_group_IT_number 64
_space_group_name_H-M_alt 'Cmce'
_space_group_name_Hall '-C 2bc 2'
loop_
_space_group_symop_operation_xyz
  'x,y,z'
  '-x,-y,-z'
  '-1/2+x,-1/2-y,-z'
  '-1/2-x,-1/2+y,z'
  '-x,y,-z'
  'x,-y,z'
  '-1/2-x,-1/2-y,z'
  '-1/2+x,-1/2+y,-z'
  'x,-1/2+y,-1/2+z'
  '-x,-1/2-y,-1/2-z'
  '-1/2+x,-y,-1/2-z'
  '-1/2-x,y,-1/2+z'
  '-x,-1/2+y,-1/2-z'
  'x,-1/2-y,-1/2+z'
  '-1/2-x,-y,-1/2+z'
  '-1/2+x,y,-1/2-z'
loop_
_atom_site_label
_atom_site_type_symbol
_atom_site_fract_x
_atom_site_fract_y
_atom_site_fract_z
Ga     Ga     0.08100000000000     0.00000000000000     0.15490000000000
