data_convert
_cell_volume           156.759780
_symmetry_space_group_name_H-M 'P 1'
_symmetry_Int_Tables_number 1
loop_
_symmetry_equiv_pos_site_id
_symmetry_equiv_pos_as_xyz
1 x,y,z
_cell_length_a         7.6610000000
_cell_length_b         4.5240000000
_cell_length_c         4.5230000000
_cell_angle_alpha        90.0000
_cell_angle_beta        90.0000
_cell_angle_gamma        90.0000
_cell_formula_units_Z 1
loop_
_atom_site_label
_atom_site_type_symbol
_atom_site_fract_x
_atom_site_fract_y
_atom_site_fract_z
Ga     Ga     0.15490000000000     0.08100000000000     0.00000000000000
Ga     Ga     0.65490000000000     0.08100000000000     0.50000000000000
Ga     Ga     0.34510000000000     0.58100000000000     0.00000000000000
Ga     Ga     0.84510000000000     0.58100000000000     0.50000000000000
Ga     Ga     0.65490000000000     0.41900000000000     0.00000000000000
Ga     Ga     0.15490000000000     0.41900000000000     0.50000000000000
Ga     Ga     0.84510000000000     0.91900000000000     0.00000000000000
Ga     Ga     0.34510000000000     0.91900000000000     0.50000000000000
