data_convert
_cell_volume           148.341375
_symmetry_space_group_name_H-M 'P 1'
_symmetry_Int_Tables_number 1
loop_
_symmetry_equiv_pos_site_id
_symmetry_equiv_pos_as_xyz
1 x,y,z
_cell_length_a         6.3700000000
_cell_length_b         4.0500000000
_cell_length_c         5.7500000000
_cell_angle_alpha        90.0000
_cell_angle_beta        90.0000
_cell_angle_gamma        90.0000
_cell_formula_units_Z 1
loop_
_atom_site_label
_atom_site_type_symbol
_atom_site_fract_x
_atom_site_fract_y
_atom_site_fract_z
Na     Na     0.00000000000000     0.00000000000000     0.00000000000000
Na     Na     0.50000000000000     0.00000000000000     0.50000000000000
I      I      0.00000000000000     0.50000000000000     0.50000000000000
I      I      0.50000000000000     0.50000000000000     0.00000000000000
O      O      0.00000000000000     0.50000000000000     0.00000000000000
O      O      0.50000000000000     0.50000000000000     0.50000000000000
O      O      0.25000000000000     0.00000000000000     0.25000000000000
O      O      0.75000000000000     0.00000000000000     0.75000000000000
O      O      0.75000000000000     0.00000000000000     0.25000000000000
O      O      0.25000000000000     0.00000000000000     0.75000000000000
