data_convert
_cell_volume          2599.311659
_symmetry_space_group_name_H-M 'P 1'
_symmetry_Int_Tables_number 1
loop_
_symmetry_equiv_pos_site_id
_symmetry_equiv_pos_as_xyz
1 x,y,z
_cell_length_a        14.6610000000
_cell_length_b         8.7350000000
_cell_length_c        20.2970000000
_cell_angle_alpha        90.0000
_cell_angle_beta        90.0000
_cell_angle_gamma        90.0000
_cell_formula_units_Z 1
loop_
_atom_site_label
_atom_site_type_symbol
_atom_site_fract_x
_atom_site_fract_y
_atom_site_fract_z
Th     Th     0.00000000000000     0.00000000000000     0.50000000000000
Th     Th     0.00000000000000     0.50000000000000     0.00000000000000
Th     Th     0.50000000000000     0.00000000000000     0.50000000000000
Th     Th     0.50000000000000     0.50000000000000     0.00000000000000
Th     Th     0.25000000000000     0.00000000000000     0.50000000000000
Th     Th     0.25000000000000     0.50000000000000     0.00000000000000
Th     Th     0.75000000000000     0.00000000000000     0.50000000000000
Th     Th     0.75000000000000     0.50000000000000     0.00000000000000
Th     Th     0.00000000000000     0.32700000000000     0.17160000000000
Th     Th     0.00000000000000     0.82700000000000     0.67160000000000
Th     Th     0.50000000000000     0.32700000000000     0.82840000000000
Th     Th     0.50000000000000     0.82700000000000     0.32840000000000
Th     Th     0.50000000000000     0.67300000000000     0.17160000000000
Th     Th     0.50000000000000     0.17300000000000     0.67160000000000
Th     Th     0.00000000000000     0.67300000000000     0.82840000000000
Th     Th     0.00000000000000     0.17300000000000     0.32840000000000
I      I      0.18260000000000     0.25000000000000     0.25000000000000
I      I      0.18260000000000     0.75000000000000     0.75000000000000
I      I      0.68260000000000     0.25000000000000     0.75000000000000
I      I      0.68260000000000     0.75000000000000     0.25000000000000
I      I      0.31740000000000     0.75000000000000     0.25000000000000
I      I      0.31740000000000     0.25000000000000     0.75000000000000
I      I      0.81740000000000     0.25000000000000     0.25000000000000
I      I      0.81740000000000     0.75000000000000     0.75000000000000
I      I      0.13020000000000     0.28940000000000     0.45100000000000
I      I      0.13020000000000     0.78940000000000     0.95100000000000
I      I      0.63020000000000     0.28940000000000     0.54900000000000
I      I      0.63020000000000     0.78940000000000     0.04900000000000
I      I      0.36980000000000     0.71060000000000     0.45100000000000
I      I      0.36980000000000     0.21060000000000     0.95100000000000
I      I      0.63020000000000     0.71060000000000     0.45100000000000
I      I      0.63020000000000     0.21060000000000     0.95100000000000
I      I      0.36980000000000     0.28940000000000     0.54900000000000
I      I      0.36980000000000     0.78940000000000     0.04900000000000
I      I      0.86980000000000     0.28940000000000     0.45100000000000
I      I      0.86980000000000     0.78940000000000     0.95100000000000
I      I      0.13020000000000     0.71060000000000     0.54900000000000
I      I      0.13020000000000     0.21060000000000     0.04900000000000
I      I      0.86980000000000     0.71060000000000     0.54900000000000
I      I      0.86980000000000     0.21060000000000     0.04900000000000
I      I      0.37080000000000     0.11330000000000     0.37730000000000
I      I      0.37080000000000     0.61330000000000     0.87730000000000
I      I      0.87080000000000     0.11330000000000     0.62270000000000
I      I      0.87080000000000     0.61330000000000     0.12270000000000
I      I      0.12920000000000     0.88670000000000     0.37730000000000
I      I      0.12920000000000     0.38670000000000     0.87730000000000
I      I      0.87080000000000     0.88670000000000     0.37730000000000
I      I      0.87080000000000     0.38670000000000     0.87730000000000
I      I      0.12920000000000     0.11330000000000     0.62270000000000
I      I      0.12920000000000     0.61330000000000     0.12270000000000
I      I      0.62920000000000     0.11330000000000     0.37730000000000
I      I      0.62920000000000     0.61330000000000     0.87730000000000
I      I      0.37080000000000     0.88670000000000     0.62270000000000
I      I      0.37080000000000     0.38670000000000     0.12270000000000
I      I      0.62920000000000     0.88670000000000     0.62270000000000
I      I      0.62920000000000     0.38670000000000     0.12270000000000
I      I      0.00000000000000     0.96820000000000     0.19940000000000
I      I      0.00000000000000     0.46820000000000     0.69940000000000
I      I      0.50000000000000     0.96820000000000     0.80060000000000
I      I      0.50000000000000     0.46820000000000     0.30060000000000
I      I      0.50000000000000     0.03180000000000     0.19940000000000
I      I      0.50000000000000     0.53180000000000     0.69940000000000
I      I      0.00000000000000     0.03180000000000     0.80060000000000
I      I      0.00000000000000     0.53180000000000     0.30060000000000
