data_stdin
_audit_creation_method 'critic2-4f1eba8'
_cell_length_a        12.5040000000
_cell_length_b         6.0040000000
_cell_length_c         6.0100000000
_cell_angle_alpha        90.0000
_cell_angle_beta        90.0000
_cell_angle_gamma        90.0000
_cell_volume           451.194836
_space_group_crystal_system orthorhombic
_space_group_IT_number 68
_space_group_name_H-M_alt 'Ccce'
_space_group_name_Hall 'C 2 2 -1bc'
loop_
_space_group_symop_operation_xyz
  'x,y,z'
  '-x,-y,z'
  '-x,y,-z'
  'x,-y,-z'
  '-x,-1/2-y,-1/2-z'
  'x,-1/2+y,-1/2-z'
  'x,-1/2-y,-1/2+z'
  '-x,-1/2+y,-1/2+z'
  '-1/2+x,-1/2+y,z'
  '-1/2-x,-1/2-y,z'
  '-1/2-x,-1/2+y,-z'
  '-1/2+x,-1/2-y,-z'
  '-1/2-x,-y,-1/2-z'
  '-1/2+x,y,-1/2-z'
  '-1/2+x,-y,-1/2+z'
  '-1/2-x,y,-1/2+z'
loop_
_atom_site_label
_atom_site_type_symbol
_atom_site_fract_x
_atom_site_fract_y
_atom_site_fract_z
Pb     Pb     0.75000000000000     0.00000000000000     0.25000000000000
Cl     Cl     0.42640000000000     0.00000000000000     0.25000000000000
O      O      0.35630000000000     0.84490000000000     0.09640000000000
