data_bleh
_cell_volume           451.194836
_symmetry_space_group_name_H-M 'P 1'
_symmetry_Int_Tables_number 1
loop_
_symmetry_equiv_pos_site_id
_symmetry_equiv_pos_as_xyz
1 x,y,z
_cell_length_a         6.0040000000
_cell_length_b         6.0100000000
_cell_length_c        12.5040000000
_cell_angle_alpha        90.0000
_cell_angle_beta        90.0000
_cell_angle_gamma        90.0000
_cell_formula_units_Z 1
loop_
_atom_site_label
_atom_site_type_symbol
_atom_site_fract_x
_atom_site_fract_y
_atom_site_fract_z
Pb     Pb     0.00000000000000     0.00000000000000     0.00000000000000
Pb     Pb     0.50000000000000     0.00000000000000     0.50000000000000
Pb     Pb     0.00000000000000     0.50000000000000     0.00000000000000
Pb     Pb     0.50000000000000     0.50000000000000     0.50000000000000
Pb     Pb     0.00000000000000     0.50000000000000     0.50000000000000
Pb     Pb     0.50000000000000     0.50000000000000     0.00000000000000
Pb     Pb     0.00000000000000     0.00000000000000     0.50000000000000
Pb     Pb     0.50000000000000     0.00000000000000     0.00000000000000
Cl     Cl     0.00000000000000     0.00000000000000     0.67640000000000
Cl     Cl     0.50000000000000     0.00000000000000     0.17640000000000
Cl     Cl     0.00000000000000     0.50000000000000     0.32360000000000
Cl     Cl     0.50000000000000     0.50000000000000     0.82360000000000
Cl     Cl     0.00000000000000     0.50000000000000     0.67640000000000
Cl     Cl     0.50000000000000     0.50000000000000     0.17640000000000
Cl     Cl     0.00000000000000     0.50000000000000     0.17640000000000
Cl     Cl     0.50000000000000     0.50000000000000     0.67640000000000
Cl     Cl     0.00000000000000     0.50000000000000     0.82360000000000
Cl     Cl     0.50000000000000     0.50000000000000     0.32360000000000
Cl     Cl     0.00000000000000     0.00000000000000     0.17640000000000
Cl     Cl     0.50000000000000     0.00000000000000     0.67640000000000
Cl     Cl     0.00000000000000     0.00000000000000     0.82360000000000
Cl     Cl     0.50000000000000     0.00000000000000     0.32360000000000
Cl     Cl     0.00000000000000     0.00000000000000     0.32360000000000
Cl     Cl     0.50000000000000     0.00000000000000     0.82360000000000
O      O      0.84490000000000     0.84640000000000     0.60630000000000
O      O      0.34490000000000     0.84640000000000     0.10630000000000
O      O      0.84490000000000     0.34640000000000     0.39370000000000
O      O      0.34490000000000     0.34640000000000     0.89370000000000
O      O      0.15510000000000     0.65360000000000     0.60630000000000
O      O      0.65510000000000     0.65360000000000     0.10630000000000
O      O      0.15510000000000     0.34640000000000     0.10630000000000
O      O      0.65510000000000     0.34640000000000     0.60630000000000
O      O      0.84490000000000     0.65360000000000     0.89370000000000
O      O      0.34490000000000     0.65360000000000     0.39370000000000
O      O      0.84490000000000     0.15360000000000     0.10630000000000
O      O      0.34490000000000     0.15360000000000     0.60630000000000
O      O      0.15510000000000     0.84640000000000     0.89370000000000
O      O      0.65510000000000     0.84640000000000     0.39370000000000
O      O      0.15510000000000     0.15360000000000     0.39370000000000
O      O      0.65510000000000     0.15360000000000     0.89370000000000
