data_stdin
_audit_creation_method 'critic2-4f1eba8'
_cell_length_a        10.4670000000
_cell_length_b        12.8700000000
_cell_length_c        24.4930000000
_cell_angle_alpha        90.0000
_cell_angle_beta        90.0000
_cell_angle_gamma        90.0000
_cell_volume          3299.459133
_space_group_crystal_system orthorhombic
_space_group_IT_number 70
_space_group_name_H-M_alt 'Fddd'
_space_group_name_Hall 'F 2 2 -1d'
loop_
_space_group_symop_operation_xyz
  'x,y,z'
  '-1/4-x,-1/4-y,z'
  'x,-3/4-y,-3/4-z'
  '-3/4-x,y,-3/4-z'
  '-x,-y,-z'
  '-1/4+x,-1/4+y,-z'
  '-x,-3/4+y,-3/4+z'
  '-3/4+x,-y,-3/4+z'
  '-1/2+x,y,-1/2+z'
  '-3/4-x,-1/4-y,-1/2+z'
  '-1/2+x,-3/4-y,-1/4-z'
  '-1/4-x,y,-1/4-z'
  '-1/2-x,-y,-1/2-z'
  '-3/4+x,-1/4+y,-1/2-z'
  '-1/2-x,-3/4+y,-1/4+z'
  '-1/4+x,-y,-1/4+z'
  '-1/2+x,-1/2+y,z'
  '-3/4-x,-3/4-y,z'
  '-1/2+x,-1/4-y,-3/4-z'
  '-1/4-x,-1/2+y,-3/4-z'
  '-1/2-x,-1/2-y,-z'
  '-3/4+x,-3/4+y,-z'
  '-1/2-x,-1/4+y,-3/4+z'
  '-1/4+x,-1/2-y,-3/4+z'
  'x,-1/2+y,-1/2+z'
  '-1/4-x,-3/4-y,-1/2+z'
  'x,-1/4-y,-1/4-z'
  '-3/4-x,-1/2+y,-1/4-z'
  '-x,-1/2-y,-1/2-z'
  '-1/4+x,-3/4+y,-1/2-z'
  '-x,-1/4+y,-1/4+z'
  '-3/4+x,-1/2-y,-1/4+z'
loop_
_atom_site_label
_atom_site_type_symbol
_atom_site_fract_x
_atom_site_fract_y
_atom_site_fract_z
S      S      0.85540000000000     0.95260000000000     0.95160000000000
S      S      0.78440000000000     0.03010000000000     0.07630000000000
S      S      0.70690000000000     0.97950000000000     0.00400000000000
S      S      0.78620000000000     0.90730000000000     0.12900000000000
