data_convert
_cell_volume           309.371270
_symmetry_space_group_name_H-M 'P 1'
_symmetry_Int_Tables_number 1
loop_
_symmetry_equiv_pos_site_id
_symmetry_equiv_pos_as_xyz
1 x,y,z
_cell_length_a         3.7729000000
_cell_length_b         3.7742000000
_cell_length_c        21.7260000000
_cell_angle_alpha        90.0000
_cell_angle_beta        90.0000
_cell_angle_gamma        90.0000
_cell_formula_units_Z 1
loop_
_atom_site_label
_atom_site_type_symbol
_atom_site_fract_x
_atom_site_fract_y
_atom_site_fract_z
Bi     Bi     0.00000000000000     0.00000000000000     0.69085000000000
Bi     Bi     0.50000000000000     0.50000000000000     0.19085000000000
Bi     Bi     0.00000000000000     0.00000000000000     0.30915000000000
Bi     Bi     0.50000000000000     0.50000000000000     0.80915000000000
Ca     Ca     0.00000000000000     0.00000000000000     0.50000000000000
Ca     Ca     0.50000000000000     0.50000000000000     0.00000000000000
C      C      0.50000000000000     0.50000000000000     0.41070000000000
C      C      0.00000000000000     0.00000000000000     0.91070000000000
C      C      0.50000000000000     0.50000000000000     0.58930000000000
C      C      0.00000000000000     0.00000000000000     0.08930000000000
O      O      0.50000000000000     0.00000000000000     0.25580000000000
O      O      0.00000000000000     0.50000000000000     0.75580000000000
O      O      0.50000000000000     0.00000000000000     0.74420000000000
O      O      0.00000000000000     0.50000000000000     0.24420000000000
O      O      0.50000000000000     0.20700000000000     0.43790000000000
O      O      0.00000000000000     0.70700000000000     0.93790000000000
O      O      0.50000000000000     0.79300000000000     0.43790000000000
O      O      0.00000000000000     0.29300000000000     0.93790000000000
O      O      0.50000000000000     0.20700000000000     0.56210000000000
O      O      0.00000000000000     0.70700000000000     0.06210000000000
O      O      0.50000000000000     0.79300000000000     0.56210000000000
O      O      0.00000000000000     0.29300000000000     0.06210000000000
O      O      0.50000000000000     0.50000000000000     0.34980000000000
O      O      0.00000000000000     0.00000000000000     0.84980000000000
O      O      0.50000000000000     0.50000000000000     0.65020000000000
O      O      0.00000000000000     0.00000000000000     0.15020000000000
