data_convert
_cell_volume           830.637081
_symmetry_space_group_name_H-M 'P 1'
_symmetry_Int_Tables_number 1
loop_
_symmetry_equiv_pos_site_id
_symmetry_equiv_pos_as_xyz
1 x,y,z
_cell_length_a        11.7100000000
_cell_length_b        11.6190000000
_cell_length_c         6.1050000000
_cell_angle_alpha        90.0000
_cell_angle_beta        90.0000
_cell_angle_gamma        90.0000
_cell_formula_units_Z 1
loop_
_atom_site_label
_atom_site_type_symbol
_atom_site_fract_x
_atom_site_fract_y
_atom_site_fract_z
Hg     Hg     0.00000000000000     0.14050000000000     0.21450000000000
Hg     Hg     0.50000000000000     0.64050000000000     0.71450000000000
Hg     Hg     0.50000000000000     0.14050000000000     0.78550000000000
Hg     Hg     0.00000000000000     0.64050000000000     0.28550000000000
Hg     Hg     0.50000000000000     0.85950000000000     0.21450000000000
Hg     Hg     0.00000000000000     0.35950000000000     0.71450000000000
Hg     Hg     0.00000000000000     0.85950000000000     0.78550000000000
Hg     Hg     0.50000000000000     0.35950000000000     0.28550000000000
Hg     Hg     0.25000000000000     0.16180000000000     0.50000000000000
Hg     Hg     0.75000000000000     0.66180000000000     0.00000000000000
Hg     Hg     0.75000000000000     0.16180000000000     0.50000000000000
Hg     Hg     0.25000000000000     0.66180000000000     0.00000000000000
Hg     Hg     0.25000000000000     0.83820000000000     0.50000000000000
Hg     Hg     0.75000000000000     0.33820000000000     0.00000000000000
Hg     Hg     0.75000000000000     0.83820000000000     0.50000000000000
Hg     Hg     0.25000000000000     0.33820000000000     0.00000000000000
Hg     Hg     0.25000000000000     0.00000000000000     0.00000000000000
Hg     Hg     0.75000000000000     0.50000000000000     0.50000000000000
Hg     Hg     0.75000000000000     0.00000000000000     0.00000000000000
Hg     Hg     0.25000000000000     0.50000000000000     0.50000000000000
Cl     Cl     0.50000000000000     0.10820000000000     0.27500000000000
Cl     Cl     0.00000000000000     0.60820000000000     0.77500000000000
Cl     Cl     0.00000000000000     0.10820000000000     0.72500000000000
Cl     Cl     0.50000000000000     0.60820000000000     0.22500000000000
Cl     Cl     0.00000000000000     0.89180000000000     0.27500000000000
Cl     Cl     0.50000000000000     0.39180000000000     0.77500000000000
Cl     Cl     0.50000000000000     0.89180000000000     0.72500000000000
Cl     Cl     0.00000000000000     0.39180000000000     0.22500000000000
O      O      0.17540000000000     0.14400000000000     0.19900000000000
O      O      0.67540000000000     0.64400000000000     0.69900000000000
O      O      0.67540000000000     0.14400000000000     0.80100000000000
O      O      0.17540000000000     0.64400000000000     0.30100000000000
O      O      0.32460000000000     0.85600000000000     0.19900000000000
O      O      0.82460000000000     0.35600000000000     0.69900000000000
O      O      0.67540000000000     0.85600000000000     0.19900000000000
O      O      0.17540000000000     0.35600000000000     0.69900000000000
O      O      0.32460000000000     0.14400000000000     0.80100000000000
O      O      0.82460000000000     0.64400000000000     0.30100000000000
O      O      0.82460000000000     0.14400000000000     0.19900000000000
O      O      0.32460000000000     0.64400000000000     0.69900000000000
O      O      0.17540000000000     0.85600000000000     0.80100000000000
O      O      0.67540000000000     0.35600000000000     0.30100000000000
O      O      0.82460000000000     0.85600000000000     0.80100000000000
O      O      0.32460000000000     0.35600000000000     0.30100000000000
