data_convert
_cell_volume          2705.352155
_symmetry_space_group_name_H-M 'P 1'
_symmetry_Int_Tables_number 1
loop_
_symmetry_equiv_pos_site_id
_symmetry_equiv_pos_as_xyz
1 x,y,z
_cell_length_a        19.9730000000
_cell_length_b        11.7119000000
_cell_length_c        11.5652000000
_cell_angle_alpha        90.0000
_cell_angle_beta        90.0000
_cell_angle_gamma        90.0000
_cell_formula_units_Z 1
loop_
_atom_site_label
_atom_site_type_symbol
_atom_site_fract_x
_atom_site_fract_y
_atom_site_fract_z
Na     Na     0.18170000000000     0.12440000000000     0.58570000000000
Na     Na     0.68170000000000     0.62440000000000     0.08570000000000
Na     Na     0.31830000000000     0.12440000000000     0.08570000000000
Na     Na     0.81830000000000     0.62440000000000     0.58570000000000
Na     Na     0.68170000000000     0.87560000000000     0.91430000000000
Na     Na     0.18170000000000     0.37560000000000     0.41430000000000
Na     Na     0.18170000000000     0.87560000000000     0.08570000000000
Na     Na     0.68170000000000     0.37560000000000     0.58570000000000
Na     Na     0.81830000000000     0.12440000000000     0.91430000000000
Na     Na     0.31830000000000     0.62440000000000     0.41430000000000
Na     Na     0.68170000000000     0.12440000000000     0.41430000000000
Na     Na     0.18170000000000     0.62440000000000     0.91430000000000
Na     Na     0.31830000000000     0.87560000000000     0.58570000000000
Na     Na     0.81830000000000     0.37560000000000     0.08570000000000
Na     Na     0.81830000000000     0.87560000000000     0.41430000000000
Na     Na     0.31830000000000     0.37560000000000     0.91430000000000
Si     Si     0.00000000000000     0.37700000000000     0.75000000000000
Si     Si     0.50000000000000     0.87700000000000     0.25000000000000
Si     Si     0.50000000000000     0.37700000000000     0.25000000000000
Si     Si     0.00000000000000     0.87700000000000     0.75000000000000
Si     Si     0.50000000000000     0.62300000000000     0.75000000000000
Si     Si     0.00000000000000     0.12300000000000     0.25000000000000
Si     Si     0.00000000000000     0.62300000000000     0.25000000000000
Si     Si     0.50000000000000     0.12300000000000     0.75000000000000
O      O      0.05400000000000     0.28980000000000     0.83040000000000
O      O      0.55400000000000     0.78980000000000     0.33040000000000
O      O      0.44600000000000     0.28980000000000     0.33040000000000
O      O      0.94600000000000     0.78980000000000     0.83040000000000
O      O      0.55400000000000     0.71020000000000     0.66960000000000
O      O      0.05400000000000     0.21020000000000     0.16960000000000
O      O      0.05400000000000     0.71020000000000     0.33040000000000
O      O      0.55400000000000     0.21020000000000     0.83040000000000
O      O      0.94600000000000     0.28980000000000     0.66960000000000
O      O      0.44600000000000     0.78980000000000     0.16960000000000
O      O      0.55400000000000     0.28980000000000     0.16960000000000
O      O      0.05400000000000     0.78980000000000     0.66960000000000
O      O      0.44600000000000     0.71020000000000     0.83040000000000
O      O      0.94600000000000     0.21020000000000     0.33040000000000
O      O      0.94600000000000     0.71020000000000     0.16960000000000
O      O      0.44600000000000     0.21020000000000     0.66960000000000
O      O      0.05410000000000     0.44690000000000     0.66810000000000
O      O      0.55410000000000     0.94690000000000     0.16810000000000
O      O      0.44590000000000     0.44690000000000     0.16810000000000
O      O      0.94590000000000     0.94690000000000     0.66810000000000
O      O      0.55410000000000     0.55310000000000     0.83190000000000
O      O      0.05410000000000     0.05310000000000     0.33190000000000
O      O      0.05410000000000     0.55310000000000     0.16810000000000
O      O      0.55410000000000     0.05310000000000     0.66810000000000
O      O      0.94590000000000     0.44690000000000     0.83190000000000
O      O      0.44590000000000     0.94690000000000     0.33190000000000
O      O      0.55410000000000     0.44690000000000     0.33190000000000
O      O      0.05410000000000     0.94690000000000     0.83190000000000
O      O      0.44590000000000     0.55310000000000     0.66810000000000
O      O      0.94590000000000     0.05310000000000     0.16810000000000
O      O      0.94590000000000     0.55310000000000     0.33190000000000
O      O      0.44590000000000     0.05310000000000     0.83190000000000
O      O      0.03790000000000     0.11900000000000     0.56610000000000
O      O      0.53790000000000     0.61900000000000     0.06610000000000
O      O      0.46210000000000     0.11900000000000     0.06610000000000
O      O      0.96210000000000     0.61900000000000     0.56610000000000
O      O      0.53790000000000     0.88100000000000     0.93390000000000
O      O      0.03790000000000     0.38100000000000     0.43390000000000
O      O      0.03790000000000     0.88100000000000     0.06610000000000
O      O      0.53790000000000     0.38100000000000     0.56610000000000
O      O      0.96210000000000     0.11900000000000     0.93390000000000
O      O      0.46210000000000     0.61900000000000     0.43390000000000
O      O      0.53790000000000     0.11900000000000     0.43390000000000
O      O      0.03790000000000     0.61900000000000     0.93390000000000
O      O      0.46210000000000     0.88100000000000     0.56610000000000
O      O      0.96210000000000     0.38100000000000     0.06610000000000
O      O      0.96210000000000     0.88100000000000     0.43390000000000
O      O      0.46210000000000     0.38100000000000     0.93390000000000
O      O      0.16490000000000     0.11220000000000     0.79390000000000
O      O      0.66490000000000     0.61220000000000     0.29390000000000
O      O      0.33510000000000     0.11220000000000     0.29390000000000
O      O      0.83510000000000     0.61220000000000     0.79390000000000
O      O      0.66490000000000     0.88780000000000     0.70610000000000
O      O      0.16490000000000     0.38780000000000     0.20610000000000
O      O      0.16490000000000     0.88780000000000     0.29390000000000
O      O      0.66490000000000     0.38780000000000     0.79390000000000
O      O      0.83510000000000     0.11220000000000     0.70610000000000
O      O      0.33510000000000     0.61220000000000     0.20610000000000
O      O      0.66490000000000     0.11220000000000     0.20610000000000
O      O      0.16490000000000     0.61220000000000     0.70610000000000
O      O      0.33510000000000     0.88780000000000     0.79390000000000
O      O      0.83510000000000     0.38780000000000     0.29390000000000
O      O      0.83510000000000     0.88780000000000     0.20610000000000
O      O      0.33510000000000     0.38780000000000     0.70610000000000
O      O      0.17550000000000     0.41400000000000     0.94640000000000
O      O      0.67550000000000     0.91400000000000     0.44640000000000
O      O      0.32450000000000     0.41400000000000     0.44640000000000
O      O      0.82450000000000     0.91400000000000     0.94640000000000
O      O      0.67550000000000     0.58600000000000     0.55360000000000
O      O      0.17550000000000     0.08600000000000     0.05360000000000
O      O      0.17550000000000     0.58600000000000     0.44640000000000
O      O      0.67550000000000     0.08600000000000     0.94640000000000
O      O      0.82450000000000     0.41400000000000     0.55360000000000
O      O      0.32450000000000     0.91400000000000     0.05360000000000
O      O      0.67550000000000     0.41400000000000     0.05360000000000
O      O      0.17550000000000     0.91400000000000     0.55360000000000
O      O      0.32450000000000     0.58600000000000     0.94640000000000
O      O      0.82450000000000     0.08600000000000     0.44640000000000
O      O      0.82450000000000     0.58600000000000     0.05360000000000
O      O      0.32450000000000     0.08600000000000     0.55360000000000
O      O      0.19050000000000     0.32150000000000     0.61520000000000
O      O      0.69050000000000     0.82150000000000     0.11520000000000
O      O      0.30950000000000     0.32150000000000     0.11520000000000
O      O      0.80950000000000     0.82150000000000     0.61520000000000
O      O      0.69050000000000     0.67850000000000     0.88480000000000
O      O      0.19050000000000     0.17850000000000     0.38480000000000
O      O      0.19050000000000     0.67850000000000     0.11520000000000
O      O      0.69050000000000     0.17850000000000     0.61520000000000
O      O      0.80950000000000     0.32150000000000     0.88480000000000
O      O      0.30950000000000     0.82150000000000     0.38480000000000
O      O      0.69050000000000     0.32150000000000     0.38480000000000
O      O      0.19050000000000     0.82150000000000     0.88480000000000
O      O      0.30950000000000     0.67850000000000     0.61520000000000
O      O      0.80950000000000     0.17850000000000     0.11520000000000
O      O      0.80950000000000     0.67850000000000     0.38480000000000
O      O      0.30950000000000     0.17850000000000     0.88480000000000
H      H      0.01600000000000     0.27000000000000     0.89000000000000
H      H      0.51600000000000     0.77000000000000     0.39000000000000
H      H      0.48400000000000     0.27000000000000     0.39000000000000
H      H      0.98400000000000     0.77000000000000     0.89000000000000
H      H      0.51600000000000     0.73000000000000     0.61000000000000
H      H      0.01600000000000     0.23000000000000     0.11000000000000
H      H      0.01600000000000     0.73000000000000     0.39000000000000
H      H      0.51600000000000     0.23000000000000     0.89000000000000
H      H      0.98400000000000     0.27000000000000     0.61000000000000
H      H      0.48400000000000     0.77000000000000     0.11000000000000
H      H      0.51600000000000     0.27000000000000     0.11000000000000
H      H      0.01600000000000     0.77000000000000     0.61000000000000
H      H      0.48400000000000     0.73000000000000     0.89000000000000
H      H      0.98400000000000     0.23000000000000     0.39000000000000
H      H      0.98400000000000     0.73000000000000     0.11000000000000
H      H      0.48400000000000     0.23000000000000     0.61000000000000
H      H      0.03500000000000     0.09000000000000     0.51000000000000
H      H      0.53500000000000     0.59000000000000     0.01000000000000
H      H      0.46500000000000     0.09000000000000     0.01000000000000
H      H      0.96500000000000     0.59000000000000     0.51000000000000
H      H      0.53500000000000     0.91000000000000     0.99000000000000
H      H      0.03500000000000     0.41000000000000     0.49000000000000
H      H      0.03500000000000     0.91000000000000     0.01000000000000
H      H      0.53500000000000     0.41000000000000     0.51000000000000
H      H      0.96500000000000     0.09000000000000     0.99000000000000
H      H      0.46500000000000     0.59000000000000     0.49000000000000
H      H      0.53500000000000     0.09000000000000     0.49000000000000
H      H      0.03500000000000     0.59000000000000     0.99000000000000
H      H      0.46500000000000     0.91000000000000     0.51000000000000
H      H      0.96500000000000     0.41000000000000     0.01000000000000
H      H      0.96500000000000     0.91000000000000     0.49000000000000
H      H      0.46500000000000     0.41000000000000     0.99000000000000
H      H      0.01300000000000     0.04000000000000     0.61000000000000
H      H      0.51300000000000     0.54000000000000     0.11000000000000
H      H      0.48700000000000     0.04000000000000     0.11000000000000
H      H      0.98700000000000     0.54000000000000     0.61000000000000
H      H      0.51300000000000     0.96000000000000     0.89000000000000
H      H      0.01300000000000     0.46000000000000     0.39000000000000
H      H      0.01300000000000     0.96000000000000     0.11000000000000
H      H      0.51300000000000     0.46000000000000     0.61000000000000
H      H      0.98700000000000     0.04000000000000     0.89000000000000
H      H      0.48700000000000     0.54000000000000     0.39000000000000
H      H      0.51300000000000     0.04000000000000     0.39000000000000
H      H      0.01300000000000     0.54000000000000     0.89000000000000
H      H      0.48700000000000     0.96000000000000     0.61000000000000
H      H      0.98700000000000     0.46000000000000     0.11000000000000
H      H      0.98700000000000     0.96000000000000     0.39000000000000
H      H      0.48700000000000     0.46000000000000     0.89000000000000
H      H      0.13800000000000     0.05000000000000     0.79100000000000
H      H      0.63800000000000     0.55000000000000     0.29100000000000
H      H      0.36200000000000     0.05000000000000     0.29100000000000
H      H      0.86200000000000     0.55000000000000     0.79100000000000
H      H      0.63800000000000     0.95000000000000     0.70900000000000
H      H      0.13800000000000     0.45000000000000     0.20900000000000
H      H      0.13800000000000     0.95000000000000     0.29100000000000
H      H      0.63800000000000     0.45000000000000     0.79100000000000
H      H      0.86200000000000     0.05000000000000     0.70900000000000
H      H      0.36200000000000     0.55000000000000     0.20900000000000
H      H      0.63800000000000     0.05000000000000     0.20900000000000
H      H      0.13800000000000     0.55000000000000     0.70900000000000
H      H      0.36200000000000     0.95000000000000     0.79100000000000
H      H      0.86200000000000     0.45000000000000     0.29100000000000
H      H      0.86200000000000     0.95000000000000     0.20900000000000
H      H      0.36200000000000     0.45000000000000     0.70900000000000
H      H      0.13400000000000     0.17000000000000     0.79500000000000
H      H      0.63400000000000     0.67000000000000     0.29500000000000
H      H      0.36600000000000     0.17000000000000     0.29500000000000
H      H      0.86600000000000     0.67000000000000     0.79500000000000
H      H      0.63400000000000     0.83000000000000     0.70500000000000
H      H      0.13400000000000     0.33000000000000     0.20500000000000
H      H      0.13400000000000     0.83000000000000     0.29500000000000
H      H      0.63400000000000     0.33000000000000     0.79500000000000
H      H      0.86600000000000     0.17000000000000     0.70500000000000
H      H      0.36600000000000     0.67000000000000     0.20500000000000
H      H      0.63400000000000     0.17000000000000     0.20500000000000
H      H      0.13400000000000     0.67000000000000     0.70500000000000
H      H      0.36600000000000     0.83000000000000     0.79500000000000
H      H      0.86600000000000     0.33000000000000     0.29500000000000
H      H      0.86600000000000     0.83000000000000     0.20500000000000
H      H      0.36600000000000     0.33000000000000     0.70500000000000
H      H      0.13300000000000     0.37000000000000     0.90700000000000
H      H      0.63300000000000     0.87000000000000     0.40700000000000
H      H      0.36700000000000     0.37000000000000     0.40700000000000
H      H      0.86700000000000     0.87000000000000     0.90700000000000
H      H      0.63300000000000     0.63000000000000     0.59300000000000
H      H      0.13300000000000     0.13000000000000     0.09300000000000
H      H      0.13300000000000     0.63000000000000     0.40700000000000
H      H      0.63300000000000     0.13000000000000     0.90700000000000
H      H      0.86700000000000     0.37000000000000     0.59300000000000
H      H      0.36700000000000     0.87000000000000     0.09300000000000
H      H      0.63300000000000     0.37000000000000     0.09300000000000
H      H      0.13300000000000     0.87000000000000     0.59300000000000
H      H      0.36700000000000     0.63000000000000     0.90700000000000
H      H      0.86700000000000     0.13000000000000     0.40700000000000
H      H      0.86700000000000     0.63000000000000     0.09300000000000
H      H      0.36700000000000     0.13000000000000     0.59300000000000
H      H      0.16700000000000     0.40000000000000     0.02700000000000
H      H      0.66700000000000     0.90000000000000     0.52700000000000
H      H      0.33300000000000     0.40000000000000     0.52700000000000
H      H      0.83300000000000     0.90000000000000     0.02700000000000
H      H      0.66700000000000     0.60000000000000     0.47300000000000
H      H      0.16700000000000     0.10000000000000     0.97300000000000
H      H      0.16700000000000     0.60000000000000     0.52700000000000
H      H      0.66700000000000     0.10000000000000     0.02700000000000
H      H      0.83300000000000     0.40000000000000     0.47300000000000
H      H      0.33300000000000     0.90000000000000     0.97300000000000
H      H      0.66700000000000     0.40000000000000     0.97300000000000
H      H      0.16700000000000     0.90000000000000     0.47300000000000
H      H      0.33300000000000     0.60000000000000     0.02700000000000
H      H      0.83300000000000     0.10000000000000     0.52700000000000
H      H      0.83300000000000     0.60000000000000     0.97300000000000
H      H      0.33300000000000     0.10000000000000     0.47300000000000
H      H      0.15900000000000     0.38000000000000     0.63500000000000
H      H      0.65900000000000     0.88000000000000     0.13500000000000
H      H      0.34100000000000     0.38000000000000     0.13500000000000
H      H      0.84100000000000     0.88000000000000     0.63500000000000
H      H      0.65900000000000     0.62000000000000     0.86500000000000
H      H      0.15900000000000     0.12000000000000     0.36500000000000
H      H      0.15900000000000     0.62000000000000     0.13500000000000
H      H      0.65900000000000     0.12000000000000     0.63500000000000
H      H      0.84100000000000     0.38000000000000     0.86500000000000
H      H      0.34100000000000     0.88000000000000     0.36500000000000
H      H      0.65900000000000     0.38000000000000     0.36500000000000
H      H      0.15900000000000     0.88000000000000     0.86500000000000
H      H      0.34100000000000     0.62000000000000     0.63500000000000
H      H      0.84100000000000     0.12000000000000     0.13500000000000
H      H      0.84100000000000     0.62000000000000     0.36500000000000
H      H      0.34100000000000     0.12000000000000     0.86500000000000
H      H      0.23800000000000     0.35000000000000     0.66100000000000
H      H      0.73800000000000     0.85000000000000     0.16100000000000
H      H      0.26200000000000     0.35000000000000     0.16100000000000
H      H      0.76200000000000     0.85000000000000     0.66100000000000
H      H      0.73800000000000     0.65000000000000     0.83900000000000
H      H      0.23800000000000     0.15000000000000     0.33900000000000
H      H      0.23800000000000     0.65000000000000     0.16100000000000
H      H      0.73800000000000     0.15000000000000     0.66100000000000
H      H      0.76200000000000     0.35000000000000     0.83900000000000
H      H      0.26200000000000     0.85000000000000     0.33900000000000
H      H      0.73800000000000     0.35000000000000     0.33900000000000
H      H      0.23800000000000     0.85000000000000     0.83900000000000
H      H      0.26200000000000     0.65000000000000     0.66100000000000
H      H      0.76200000000000     0.15000000000000     0.16100000000000
H      H      0.76200000000000     0.65000000000000     0.33900000000000
H      H      0.26200000000000     0.15000000000000     0.83900000000000
