data_convert
_cell_volume           538.141701
_symmetry_space_group_name_H-M 'P 1'
_symmetry_Int_Tables_number 1
loop_
_symmetry_equiv_pos_site_id
_symmetry_equiv_pos_as_xyz
1 x,y,z
_cell_length_a         8.2566000000
_cell_length_b         5.6983000000
_cell_length_c        11.4380000000
_cell_angle_alpha        90.0000
_cell_angle_beta        90.0000
_cell_angle_gamma        90.0000
_cell_formula_units_Z 1
loop_
_atom_site_label
_atom_site_type_symbol
_atom_site_fract_x
_atom_site_fract_y
_atom_site_fract_z
Mg     Mg     0.00000000000000     0.00000000000000     0.00000000000000
Mg     Mg     0.50000000000000     0.50000000000000     0.50000000000000
Mg     Mg     0.00000000000000     0.00000000000000     0.50000000000000
Mg     Mg     0.50000000000000     0.50000000000000     0.00000000000000
Mg     Mg     0.97010000000000     0.00000000000000     0.25000000000000
Mg     Mg     0.47010000000000     0.50000000000000     0.75000000000000
Mg     Mg     0.02990000000000     0.00000000000000     0.75000000000000
Mg     Mg     0.52990000000000     0.50000000000000     0.25000000000000
Mg     Mg     0.25000000000000     0.25000000000000     0.12760000000000
Mg     Mg     0.75000000000000     0.75000000000000     0.62760000000000
Mg     Mg     0.25000000000000     0.25000000000000     0.37240000000000
Mg     Mg     0.75000000000000     0.75000000000000     0.87240000000000
Mg     Mg     0.25000000000000     0.75000000000000     0.12760000000000
Mg     Mg     0.75000000000000     0.25000000000000     0.62760000000000
Mg     Mg     0.75000000000000     0.25000000000000     0.87240000000000
Mg     Mg     0.25000000000000     0.75000000000000     0.37240000000000
Si     Si     0.61680000000000     0.00000000000000     0.11980000000000
Si     Si     0.11680000000000     0.50000000000000     0.61980000000000
Si     Si     0.61680000000000     0.00000000000000     0.38020000000000
Si     Si     0.11680000000000     0.50000000000000     0.88020000000000
Si     Si     0.38320000000000     0.00000000000000     0.61980000000000
Si     Si     0.88320000000000     0.50000000000000     0.11980000000000
Si     Si     0.38320000000000     0.00000000000000     0.88020000000000
Si     Si     0.88320000000000     0.50000000000000     0.38020000000000
O      O      0.21660000000000     0.00000000000000     0.25000000000000
O      O      0.71660000000000     0.50000000000000     0.75000000000000
O      O      0.78340000000000     0.00000000000000     0.75000000000000
O      O      0.28340000000000     0.50000000000000     0.25000000000000
O      O      0.71640000000000     0.00000000000000     0.25000000000000
O      O      0.21640000000000     0.50000000000000     0.75000000000000
O      O      0.28360000000000     0.00000000000000     0.75000000000000
O      O      0.78360000000000     0.50000000000000     0.25000000000000
O      O      0.25580000000000     0.00000000000000     0.99000000000000
O      O      0.75580000000000     0.50000000000000     0.49000000000000
O      O      0.25580000000000     0.00000000000000     0.51000000000000
O      O      0.75580000000000     0.50000000000000     0.01000000000000
O      O      0.74420000000000     0.00000000000000     0.49000000000000
O      O      0.24420000000000     0.50000000000000     0.99000000000000
O      O      0.74420000000000     0.00000000000000     0.01000000000000
O      O      0.24420000000000     0.50000000000000     0.51000000000000
O      O      0.99250000000000     0.26150000000000     0.12250000000000
O      O      0.49250000000000     0.76150000000000     0.62250000000000
O      O      0.99250000000000     0.26150000000000     0.37750000000000
O      O      0.49250000000000     0.76150000000000     0.87750000000000
O      O      0.00750000000000     0.73850000000000     0.62250000000000
O      O      0.50750000000000     0.23850000000000     0.12250000000000
O      O      0.99250000000000     0.73850000000000     0.12250000000000
O      O      0.49250000000000     0.23850000000000     0.62250000000000
O      O      0.00750000000000     0.26150000000000     0.87750000000000
O      O      0.50750000000000     0.76150000000000     0.37750000000000
O      O      0.00750000000000     0.26150000000000     0.62250000000000
O      O      0.50750000000000     0.76150000000000     0.12250000000000
O      O      0.99250000000000     0.73850000000000     0.37750000000000
O      O      0.49250000000000     0.23850000000000     0.87750000000000
O      O      0.00750000000000     0.73850000000000     0.87750000000000
O      O      0.50750000000000     0.23850000000000     0.37750000000000
