data_convert
_cell_volume           235.029946
_symmetry_space_group_name_H-M 'P 1'
_symmetry_Int_Tables_number 1
loop_
_symmetry_equiv_pos_site_id
_symmetry_equiv_pos_as_xyz
1 x,y,z
_cell_length_a         3.9245000000
_cell_length_b         3.9245000000
_cell_length_c        15.2600000000
_cell_angle_alpha        90.0000
_cell_angle_beta        90.0000
_cell_angle_gamma        90.0000
_cell_formula_units_Z 1
loop_
_atom_site_label
_atom_site_type_symbol
_atom_site_fract_x
_atom_site_fract_y
_atom_site_fract_z
Rh     Rh     0.14800000000000     0.15330000000000     0.59400000000000
Rh     Rh     0.84670000000000     0.14800000000000     0.34400000000000
Rh     Rh     0.85200000000000     0.84670000000000     0.09400000000000
Rh     Rh     0.15330000000000     0.85200000000000     0.84400000000000
C      C      0.14500000000000     0.16500000000000     0.46050000000000
C      C      0.83500000000000     0.14500000000000     0.21050000000000
C      C      0.85500000000000     0.83500000000000     0.96050000000000
C      C      0.16500000000000     0.85500000000000     0.71050000000000
C      C      0.15000000000000     0.64700000000000     0.63700000000000
C      C      0.35300000000000     0.15000000000000     0.38700000000000
C      C      0.85000000000000     0.35300000000000     0.13700000000000
C      C      0.64700000000000     0.85000000000000     0.88700000000000
Ce     Ce     0.34850000000000     0.35170000000000     0.00000000000000
Ce     Ce     0.64830000000000     0.34850000000000     0.75000000000000
Ce     Ce     0.65150000000000     0.64830000000000     0.50000000000000
Ce     Ce     0.35170000000000     0.65150000000000     0.25000000000000
