data_convert
_cell_volume           287.282048
_symmetry_space_group_name_H-M 'P 1'
_symmetry_Int_Tables_number 1
loop_
_symmetry_equiv_pos_site_id
_symmetry_equiv_pos_as_xyz
1 x,y,z
_cell_length_a         8.4800000000
_cell_length_b         8.4800000000
_cell_length_c         3.9950000000
_cell_angle_alpha        90.0000
_cell_angle_beta        90.0000
_cell_angle_gamma        90.0000
_cell_formula_units_Z 1
loop_
_atom_site_label
_atom_site_type_symbol
_atom_site_fract_x
_atom_site_fract_y
_atom_site_fract_z
W      W      0.00000000000000     0.00000000000000     0.00000000000000
W      W      0.50000000000000     0.50000000000000     0.50000000000000
O      O      0.00000000000000     0.00000000000000     0.54500000000000
O      O      0.50000000000000     0.50000000000000     0.04500000000000
Cl     Cl     0.06690000000000     0.25840000000000     0.07890000000000
Cl     Cl     0.56690000000000     0.75840000000000     0.57890000000000
Cl     Cl     0.74160000000000     0.06690000000000     0.07890000000000
Cl     Cl     0.24160000000000     0.56690000000000     0.57890000000000
Cl     Cl     0.93310000000000     0.74160000000000     0.07890000000000
Cl     Cl     0.43310000000000     0.24160000000000     0.57890000000000
Cl     Cl     0.25840000000000     0.93310000000000     0.07890000000000
Cl     Cl     0.75840000000000     0.43310000000000     0.57890000000000
