data_convert
_cell_volume          1282.217429
_symmetry_space_group_name_H-M 'P 1'
_symmetry_Int_Tables_number 1
loop_
_symmetry_equiv_pos_site_id
_symmetry_equiv_pos_as_xyz
1 x,y,z
_cell_length_a        11.4345000000
_cell_length_b        11.4345000000
_cell_length_c         9.8068000000
_cell_angle_alpha        90.0000
_cell_angle_beta        90.0000
_cell_angle_gamma        90.0000
_cell_formula_units_Z 1
loop_
_atom_site_label
_atom_site_type_symbol
_atom_site_fract_x
_atom_site_fract_y
_atom_site_fract_z
C      C      0.99590000000000     0.36050000000000     0.17720000000000
C      C      0.49590000000000     0.86050000000000     0.67720000000000
C      C      0.50410000000000     0.13950000000000     0.67720000000000
C      C      0.00410000000000     0.63950000000000     0.17720000000000
C      C      0.63950000000000     0.49590000000000     0.42720000000000
C      C      0.13950000000000     0.99590000000000     0.92720000000000
C      C      0.86050000000000     0.00410000000000     0.92720000000000
C      C      0.36050000000000     0.50410000000000     0.42720000000000
C      C      0.91170000000000     0.27610000000000     0.16660000000000
C      C      0.41170000000000     0.77610000000000     0.66660000000000
C      C      0.58830000000000     0.22390000000000     0.66660000000000
C      C      0.08830000000000     0.72390000000000     0.16660000000000
C      C      0.72390000000000     0.41170000000000     0.41660000000000
C      C      0.22390000000000     0.91170000000000     0.91660000000000
C      C      0.77610000000000     0.08830000000000     0.91660000000000
C      C      0.27610000000000     0.58830000000000     0.41660000000000
H      H      0.85450000000000     0.28080000000000     0.09940000000000
H      H      0.35450000000000     0.78080000000000     0.59940000000000
H      H      0.64550000000000     0.21920000000000     0.59940000000000
H      H      0.14550000000000     0.71920000000000     0.09940000000000
H      H      0.71920000000000     0.35450000000000     0.34940000000000
H      H      0.21920000000000     0.85450000000000     0.84940000000000
H      H      0.78080000000000     0.14550000000000     0.84940000000000
H      H      0.28080000000000     0.64550000000000     0.34940000000000
C      C      0.91300000000000     0.18220000000000     0.25910000000000
C      C      0.41300000000000     0.68220000000000     0.75910000000000
C      C      0.58700000000000     0.31780000000000     0.75910000000000
C      C      0.08700000000000     0.81780000000000     0.25910000000000
C      C      0.81780000000000     0.41300000000000     0.50910000000000
C      C      0.31780000000000     0.91300000000000     0.00910000000000
C      C      0.68220000000000     0.08700000000000     0.00910000000000
C      C      0.18220000000000     0.58700000000000     0.50910000000000
H      H      0.85670000000000     0.12370000000000     0.25300000000000
H      H      0.35670000000000     0.62370000000000     0.75300000000000
H      H      0.64330000000000     0.37630000000000     0.75300000000000
H      H      0.14330000000000     0.87630000000000     0.25300000000000
H      H      0.87630000000000     0.35670000000000     0.50300000000000
H      H      0.37630000000000     0.85670000000000     0.00300000000000
H      H      0.62370000000000     0.14330000000000     0.00300000000000
H      H      0.12370000000000     0.64330000000000     0.50300000000000
C      C      0.99570000000000     0.17690000000000     0.35630000000000
C      C      0.49570000000000     0.67690000000000     0.85630000000000
C      C      0.50430000000000     0.32310000000000     0.85630000000000
C      C      0.00430000000000     0.82310000000000     0.35630000000000
C      C      0.82310000000000     0.49570000000000     0.60630000000000
C      C      0.32310000000000     0.99570000000000     0.10630000000000
C      C      0.67690000000000     0.00430000000000     0.10630000000000
C      C      0.17690000000000     0.50430000000000     0.60630000000000
H      H      0.99550000000000     0.11460000000000     0.41710000000000
H      H      0.49550000000000     0.61460000000000     0.91710000000000
H      H      0.50450000000000     0.38540000000000     0.91710000000000
H      H      0.00450000000000     0.88540000000000     0.41710000000000
H      H      0.88540000000000     0.49550000000000     0.66710000000000
H      H      0.38540000000000     0.99550000000000     0.16710000000000
H      H      0.61460000000000     0.00450000000000     0.16710000000000
H      H      0.11460000000000     0.50450000000000     0.66710000000000
C      C      0.08070000000000     0.26170000000000     0.36810000000000
C      C      0.58070000000000     0.76170000000000     0.86810000000000
C      C      0.41930000000000     0.23830000000000     0.86810000000000
C      C      0.91930000000000     0.73830000000000     0.36810000000000
C      C      0.73830000000000     0.58070000000000     0.61810000000000
C      C      0.23830000000000     0.08070000000000     0.11810000000000
C      C      0.76170000000000     0.91930000000000     0.11810000000000
C      C      0.26170000000000     0.41930000000000     0.61810000000000
H      H      0.13760000000000     0.25610000000000     0.43550000000000
H      H      0.63760000000000     0.75610000000000     0.93550000000000
H      H      0.36240000000000     0.24390000000000     0.93550000000000
H      H      0.86240000000000     0.74390000000000     0.43550000000000
H      H      0.74390000000000     0.63760000000000     0.68550000000000
H      H      0.24390000000000     0.13760000000000     0.18550000000000
H      H      0.75610000000000     0.86240000000000     0.18550000000000
H      H      0.25610000000000     0.36240000000000     0.68550000000000
C      C      0.08040000000000     0.35460000000000     0.27900000000000
C      C      0.58040000000000     0.85460000000000     0.77900000000000
C      C      0.41960000000000     0.14540000000000     0.77900000000000
C      C      0.91960000000000     0.64540000000000     0.27900000000000
C      C      0.64540000000000     0.58040000000000     0.52900000000000
C      C      0.14540000000000     0.08040000000000     0.02900000000000
C      C      0.85460000000000     0.91960000000000     0.02900000000000
C      C      0.35460000000000     0.41960000000000     0.52900000000000
H      H      0.13640000000000     0.41320000000000     0.28680000000000
H      H      0.63640000000000     0.91320000000000     0.78680000000000
H      H      0.36360000000000     0.08680000000000     0.78680000000000
H      H      0.86360000000000     0.58680000000000     0.28680000000000
H      H      0.58680000000000     0.63640000000000     0.53680000000000
H      H      0.08680000000000     0.13640000000000     0.03680000000000
H      H      0.91320000000000     0.86360000000000     0.03680000000000
H      H      0.41320000000000     0.36360000000000     0.53680000000000
Br     Br     0.23428000000000     0.49056000000000     0.02656000000000
Br     Br     0.73428000000000     0.99056000000000     0.52656000000000
Br     Br     0.26572000000000     0.00944000000000     0.52656000000000
Br     Br     0.76572000000000     0.50944000000000     0.02656000000000
Br     Br     0.50944000000000     0.73428000000000     0.27656000000000
Br     Br     0.00944000000000     0.23428000000000     0.77656000000000
Br     Br     0.99056000000000     0.76572000000000     0.77656000000000
Br     Br     0.49056000000000     0.26572000000000     0.27656000000000
Te     Te     0.00000000000000     0.50000000000000     0.03297000000000
Te     Te     0.50000000000000     0.00000000000000     0.53297000000000
Te     Te     0.50000000000000     0.50000000000000     0.28297000000000
Te     Te     0.00000000000000     0.00000000000000     0.78297000000000
