data_convert
_cell_volume           662.365901
_symmetry_space_group_name_H-M 'P 1'
_symmetry_Int_Tables_number 1
loop_
_symmetry_equiv_pos_site_id
_symmetry_equiv_pos_as_xyz
1 x,y,z
_cell_length_a         8.6400000000
_cell_length_b         8.6400000000
_cell_length_c         8.8730000000
_cell_angle_alpha        90.0000
_cell_angle_beta        90.0000
_cell_angle_gamma        90.0000
_cell_formula_units_Z 1
loop_
_atom_site_label
_atom_site_type_symbol
_atom_site_fract_x
_atom_site_fract_y
_atom_site_fract_z
Al     Al     0.00000000000000     0.50000000000000     0.75000000000000
Al     Al     0.50000000000000     0.00000000000000     0.25000000000000
Be     Be     0.00000000000000     0.50000000000000     0.25000000000000
Be     Be     0.50000000000000     0.00000000000000     0.75000000000000
Si     Si     0.01270000000000     0.25330000000000     0.49580000000000
Si     Si     0.51270000000000     0.75330000000000     0.99580000000000
Si     Si     0.25330000000000     0.98730000000000     0.50420000000000
Si     Si     0.75330000000000     0.48730000000000     0.00420000000000
Si     Si     0.98730000000000     0.74670000000000     0.49580000000000
Si     Si     0.48730000000000     0.24670000000000     0.99580000000000
Si     Si     0.74670000000000     0.01270000000000     0.50420000000000
Si     Si     0.24670000000000     0.51270000000000     0.00420000000000
O      O      0.15040000000000     0.13430000000000     0.44170000000000
O      O      0.65040000000000     0.63430000000000     0.94170000000000
O      O      0.13430000000000     0.84960000000000     0.55830000000000
O      O      0.63430000000000     0.34960000000000     0.05830000000000
O      O      0.84960000000000     0.86570000000000     0.44170000000000
O      O      0.34960000000000     0.36570000000000     0.94170000000000
O      O      0.86570000000000     0.15040000000000     0.55830000000000
O      O      0.36570000000000     0.65040000000000     0.05830000000000
O      O      0.34720000000000     0.03850000000000     0.64880000000000
O      O      0.84720000000000     0.53850000000000     0.14880000000000
O      O      0.03850000000000     0.65280000000000     0.35120000000000
O      O      0.53850000000000     0.15280000000000     0.85120000000000
O      O      0.65280000000000     0.96150000000000     0.64880000000000
O      O      0.15280000000000     0.46150000000000     0.14880000000000
O      O      0.96150000000000     0.34720000000000     0.35120000000000
O      O      0.46150000000000     0.84720000000000     0.85120000000000
O      O      0.42560000000000     0.14860000000000     0.13770000000000
O      O      0.92560000000000     0.64860000000000     0.63770000000000
O      O      0.14860000000000     0.57440000000000     0.86230000000000
O      O      0.64860000000000     0.07440000000000     0.36230000000000
O      O      0.57440000000000     0.85140000000000     0.13770000000000
O      O      0.07440000000000     0.35140000000000     0.63770000000000
O      O      0.85140000000000     0.42560000000000     0.86230000000000
O      O      0.35140000000000     0.92560000000000     0.36230000000000
Na     Na     0.15630000000000     0.19720000000000     0.18180000000000
Na     Na     0.65630000000000     0.69720000000000     0.68180000000000
Na     Na     0.19720000000000     0.84370000000000     0.81820000000000
Na     Na     0.69720000000000     0.34370000000000     0.31820000000000
Na     Na     0.84370000000000     0.80280000000000     0.18180000000000
Na     Na     0.34370000000000     0.30280000000000     0.68180000000000
Na     Na     0.80280000000000     0.15630000000000     0.81820000000000
Na     Na     0.30280000000000     0.65630000000000     0.31820000000000
Cl     Cl     0.00000000000000     0.00000000000000     0.00000000000000
Cl     Cl     0.50000000000000     0.50000000000000     0.50000000000000
