data_convert
_cell_volume           696.580780
_symmetry_space_group_name_H-M 'P 1'
_symmetry_Int_Tables_number 1
loop_
_symmetry_equiv_pos_site_id
_symmetry_equiv_pos_as_xyz
1 x,y,z
_cell_length_a        10.8200000000
_cell_length_b        10.8200000000
_cell_length_c         5.9500000000
_cell_angle_alpha        90.0000
_cell_angle_beta        90.0000
_cell_angle_gamma        90.0000
_cell_formula_units_Z 1
loop_
_atom_site_label
_atom_site_type_symbol
_atom_site_fract_x
_atom_site_fract_y
_atom_site_fract_z
Cl     Cl     0.35200000000000     0.44900000000000     0.36000000000000
Cl     Cl     0.44900000000000     0.14800000000000     0.14000000000000
Cl     Cl     0.55100000000000     0.85200000000000     0.86000000000000
Cl     Cl     0.85200000000000     0.94900000000000     0.64000000000000
Cl     Cl     0.14800000000000     0.05100000000000     0.36000000000000
Cl     Cl     0.05100000000000     0.35200000000000     0.14000000000000
Cl     Cl     0.94900000000000     0.64800000000000     0.86000000000000
Cl     Cl     0.64800000000000     0.55100000000000     0.64000000000000
Cl     Cl     0.30700000000000     0.59400000000000     0.81500000000000
Cl     Cl     0.59400000000000     0.19300000000000     0.68500000000000
Cl     Cl     0.40600000000000     0.80700000000000     0.31500000000000
Cl     Cl     0.80700000000000     0.09400000000000     0.18500000000000
Cl     Cl     0.19300000000000     0.90600000000000     0.81500000000000
Cl     Cl     0.90600000000000     0.30700000000000     0.68500000000000
Cl     Cl     0.09400000000000     0.69300000000000     0.31500000000000
Cl     Cl     0.69300000000000     0.40600000000000     0.18500000000000
P      P      0.29100000000000     0.42600000000000     0.67000000000000
P      P      0.42600000000000     0.20900000000000     0.83000000000000
P      P      0.57400000000000     0.79100000000000     0.17000000000000
P      P      0.79100000000000     0.92600000000000     0.33000000000000
P      P      0.20900000000000     0.07400000000000     0.67000000000000
P      P      0.07400000000000     0.29100000000000     0.83000000000000
P      P      0.92600000000000     0.70900000000000     0.17000000000000
P      P      0.70900000000000     0.57400000000000     0.33000000000000
N      N      0.37500000000000     0.35500000000000     0.86500000000000
N      N      0.35500000000000     0.12500000000000     0.63500000000000
N      N      0.64500000000000     0.87500000000000     0.36500000000000
N      N      0.87500000000000     0.85500000000000     0.13500000000000
N      N      0.12500000000000     0.14500000000000     0.86500000000000
N      N      0.14500000000000     0.37500000000000     0.63500000000000
N      N      0.85500000000000     0.62500000000000     0.36500000000000
N      N      0.62500000000000     0.64500000000000     0.13500000000000
