data_convert
_cell_volume           274.263539
_symmetry_space_group_name_H-M 'P 1'
_symmetry_Int_Tables_number 1
loop_
_symmetry_equiv_pos_site_id
_symmetry_equiv_pos_as_xyz
1 x,y,z
_cell_length_a         9.8150000000
_cell_length_b         9.8150000000
_cell_length_c         2.8470000000
_cell_angle_alpha        90.0000
_cell_angle_beta        90.0000
_cell_angle_gamma        90.0000
_cell_formula_units_Z 1
loop_
_atom_site_label
_atom_site_type_symbol
_atom_site_fract_x
_atom_site_fract_y
_atom_site_fract_z
Mn     Mn     0.33000000000000     0.15000000000000     0.50000000000000
Mn     Mn     0.83000000000000     0.65000000000000     0.00000000000000
Mn     Mn     0.15000000000000     0.67000000000000     0.50000000000000
Mn     Mn     0.65000000000000     0.17000000000000     0.00000000000000
Mn     Mn     0.85000000000000     0.33000000000000     0.50000000000000
Mn     Mn     0.35000000000000     0.83000000000000     0.00000000000000
Mn     Mn     0.67000000000000     0.85000000000000     0.50000000000000
Mn     Mn     0.17000000000000     0.35000000000000     0.00000000000000
O      O      0.20500000000000     0.16000000000000     0.00000000000000
O      O      0.70500000000000     0.66000000000000     0.50000000000000
O      O      0.16000000000000     0.79500000000000     0.00000000000000
O      O      0.66000000000000     0.29500000000000     0.50000000000000
O      O      0.84000000000000     0.20500000000000     0.00000000000000
O      O      0.34000000000000     0.70500000000000     0.50000000000000
O      O      0.79500000000000     0.84000000000000     0.00000000000000
O      O      0.29500000000000     0.34000000000000     0.50000000000000
O      O      0.45800000000000     0.16000000000000     0.00000000000000
O      O      0.95800000000000     0.66000000000000     0.50000000000000
O      O      0.16000000000000     0.54200000000000     0.00000000000000
O      O      0.66000000000000     0.04200000000000     0.50000000000000
O      O      0.84000000000000     0.45800000000000     0.00000000000000
O      O      0.34000000000000     0.95800000000000     0.50000000000000
O      O      0.54200000000000     0.84000000000000     0.00000000000000
O      O      0.04200000000000     0.34000000000000     0.50000000000000
