data_convert
_cell_volume          3517.019856
_symmetry_space_group_name_H-M 'P 1'
_symmetry_Int_Tables_number 1
loop_
_symmetry_equiv_pos_site_id
_symmetry_equiv_pos_as_xyz
1 x,y,z
_cell_length_a        16.2503000000
_cell_length_b        16.2503000000
_cell_length_c        13.3184000000
_cell_angle_alpha        90.0000
_cell_angle_beta        90.0000
_cell_angle_gamma        90.0000
_cell_formula_units_Z 1
loop_
_atom_site_label
_atom_site_type_symbol
_atom_site_fract_x
_atom_site_fract_y
_atom_site_fract_z
Pt     Pt     0.10962000000000     0.50000000000000     0.00000000000000
Pt     Pt     0.50000000000000     0.10962000000000     0.00000000000000
Pt     Pt     0.89038000000000     0.50000000000000     0.00000000000000
Pt     Pt     0.50000000000000     0.89038000000000     0.00000000000000
Pt     Pt     0.00000000000000     0.50000000000000     0.86772000000000
Pt     Pt     0.50000000000000     0.00000000000000     0.86772000000000
Pt     Pt     0.00000000000000     0.50000000000000     0.13228000000000
Pt     Pt     0.50000000000000     0.00000000000000     0.13228000000000
Fe     Fe     0.26760000000000     0.34630000000000     0.69430000000000
Fe     Fe     0.65370000000000     0.26760000000000     0.69430000000000
Fe     Fe     0.73240000000000     0.65370000000000     0.69430000000000
Fe     Fe     0.34630000000000     0.73240000000000     0.69430000000000
Fe     Fe     0.73240000000000     0.34630000000000     0.30570000000000
Fe     Fe     0.34630000000000     0.26760000000000     0.30570000000000
Fe     Fe     0.26760000000000     0.65370000000000     0.30570000000000
Fe     Fe     0.65370000000000     0.73240000000000     0.30570000000000
O      O      0.19650000000000     0.48690000000000     0.88030000000000
O      O      0.51310000000000     0.19650000000000     0.88030000000000
O      O      0.80350000000000     0.51310000000000     0.88030000000000
O      O      0.48690000000000     0.80350000000000     0.88030000000000
O      O      0.80350000000000     0.48690000000000     0.11970000000000
O      O      0.48690000000000     0.19650000000000     0.11970000000000
O      O      0.19650000000000     0.51310000000000     0.11970000000000
O      O      0.51310000000000     0.80350000000000     0.11970000000000
O      O      0.09600000000000     0.48890000000000     0.76140000000000
O      O      0.51110000000000     0.09600000000000     0.76140000000000
O      O      0.90400000000000     0.51110000000000     0.76140000000000
O      O      0.48890000000000     0.90400000000000     0.76140000000000
O      O      0.90400000000000     0.48890000000000     0.23860000000000
O      O      0.48890000000000     0.09600000000000     0.23860000000000
O      O      0.09600000000000     0.51110000000000     0.23860000000000
O      O      0.51110000000000     0.90400000000000     0.23860000000000
O      O      0.11430000000000     0.37500000000000     0.01770000000000
O      O      0.62500000000000     0.11430000000000     0.01770000000000
O      O      0.88570000000000     0.62500000000000     0.01770000000000
O      O      0.37500000000000     0.88570000000000     0.01770000000000
O      O      0.88570000000000     0.37500000000000     0.98230000000000
O      O      0.37500000000000     0.11430000000000     0.98230000000000
O      O      0.11430000000000     0.62500000000000     0.98230000000000
O      O      0.62500000000000     0.88570000000000     0.98230000000000
O      O      0.98540000000000     0.37680000000000     0.86230000000000
O      O      0.62320000000000     0.98540000000000     0.86230000000000
O      O      0.01460000000000     0.62320000000000     0.86230000000000
O      O      0.37680000000000     0.01460000000000     0.86230000000000
O      O      0.01460000000000     0.37680000000000     0.13770000000000
O      O      0.37680000000000     0.98540000000000     0.13770000000000
O      O      0.98540000000000     0.62320000000000     0.13770000000000
O      O      0.62320000000000     0.01460000000000     0.13770000000000
C      C      0.17090000000000     0.48500000000000     0.78930000000000
C      C      0.51500000000000     0.17090000000000     0.78930000000000
C      C      0.82910000000000     0.51500000000000     0.78930000000000
C      C      0.48500000000000     0.82910000000000     0.78930000000000
C      C      0.82910000000000     0.48500000000000     0.21070000000000
C      C      0.48500000000000     0.17090000000000     0.21070000000000
C      C      0.17090000000000     0.51500000000000     0.21070000000000
C      C      0.51500000000000     0.82910000000000     0.21070000000000
C      C      0.23340000000000     0.46270000000000     0.71030000000000
C      C      0.53730000000000     0.23340000000000     0.71030000000000
C      C      0.76660000000000     0.53730000000000     0.71030000000000
C      C      0.46270000000000     0.76660000000000     0.71030000000000
C      C      0.76660000000000     0.46270000000000     0.28970000000000
C      C      0.46270000000000     0.23340000000000     0.28970000000000
C      C      0.23340000000000     0.53730000000000     0.28970000000000
C      C      0.53730000000000     0.76660000000000     0.28970000000000
C      C      0.21460000000000     0.43830000000000     0.61250000000000
C      C      0.56170000000000     0.21460000000000     0.61250000000000
C      C      0.78540000000000     0.56170000000000     0.61250000000000
C      C      0.43830000000000     0.78540000000000     0.61250000000000
C      C      0.78540000000000     0.43830000000000     0.38750000000000
C      C      0.43830000000000     0.21460000000000     0.38750000000000
C      C      0.21460000000000     0.56170000000000     0.38750000000000
C      C      0.56170000000000     0.78540000000000     0.38750000000000
C      C      0.28850000000000     0.41600000000000     0.56310000000000
C      C      0.58400000000000     0.28850000000000     0.56310000000000
C      C      0.71150000000000     0.58400000000000     0.56310000000000
C      C      0.41600000000000     0.71150000000000     0.56310000000000
C      C      0.71150000000000     0.41600000000000     0.43690000000000
C      C      0.41600000000000     0.28850000000000     0.43690000000000
C      C      0.28850000000000     0.58400000000000     0.43690000000000
C      C      0.58400000000000     0.71150000000000     0.43690000000000
C      C      0.35400000000000     0.42420000000000     0.63230000000000
C      C      0.57580000000000     0.35400000000000     0.63230000000000
C      C      0.64600000000000     0.57580000000000     0.63230000000000
C      C      0.42420000000000     0.64600000000000     0.63230000000000
C      C      0.64600000000000     0.42420000000000     0.36770000000000
C      C      0.42420000000000     0.35400000000000     0.36770000000000
C      C      0.35400000000000     0.57580000000000     0.36770000000000
C      C      0.57580000000000     0.64600000000000     0.36770000000000
C      C      0.32060000000000     0.45790000000000     0.72090000000000
C      C      0.54210000000000     0.32060000000000     0.72090000000000
C      C      0.67940000000000     0.54210000000000     0.72090000000000
C      C      0.45790000000000     0.67940000000000     0.72090000000000
C      C      0.67940000000000     0.45790000000000     0.27910000000000
C      C      0.45790000000000     0.32060000000000     0.27910000000000
C      C      0.32060000000000     0.54210000000000     0.27910000000000
C      C      0.54210000000000     0.67940000000000     0.27910000000000
C      C      0.23400000000000     0.22600000000000     0.66100000000000
C      C      0.77400000000000     0.23400000000000     0.66100000000000
C      C      0.76600000000000     0.77400000000000     0.66100000000000
C      C      0.22600000000000     0.76600000000000     0.66100000000000
C      C      0.76600000000000     0.22600000000000     0.33900000000000
C      C      0.22600000000000     0.23400000000000     0.33900000000000
C      C      0.23400000000000     0.77400000000000     0.33900000000000
C      C      0.77400000000000     0.76600000000000     0.33900000000000
C      C      0.31110000000000     0.22750000000000     0.69600000000000
C      C      0.77250000000000     0.31110000000000     0.69600000000000
C      C      0.68890000000000     0.77250000000000     0.69600000000000
C      C      0.22750000000000     0.68890000000000     0.69600000000000
C      C      0.68890000000000     0.22750000000000     0.30400000000000
C      C      0.22750000000000     0.31110000000000     0.30400000000000
C      C      0.31110000000000     0.77250000000000     0.30400000000000
C      C      0.77250000000000     0.68890000000000     0.30400000000000
C      C      0.31480000000000     0.26160000000000     0.79400000000000
C      C      0.73840000000000     0.31480000000000     0.79400000000000
C      C      0.68520000000000     0.73840000000000     0.79400000000000
C      C      0.26160000000000     0.68520000000000     0.79400000000000
C      C      0.68520000000000     0.26160000000000     0.20600000000000
C      C      0.26160000000000     0.31480000000000     0.20600000000000
C      C      0.31480000000000     0.73840000000000     0.20600000000000
C      C      0.73840000000000     0.68520000000000     0.20600000000000
C      C      0.23600000000000     0.28700000000000     0.81800000000000
C      C      0.71300000000000     0.23600000000000     0.81800000000000
C      C      0.76400000000000     0.71300000000000     0.81800000000000
C      C      0.28700000000000     0.76400000000000     0.81800000000000
C      C      0.76400000000000     0.28700000000000     0.18200000000000
C      C      0.28700000000000     0.23600000000000     0.18200000000000
C      C      0.23600000000000     0.71300000000000     0.18200000000000
C      C      0.71300000000000     0.76400000000000     0.18200000000000
C      C      0.17900000000000     0.26500000000000     0.73300000000000
C      C      0.73500000000000     0.17900000000000     0.73300000000000
C      C      0.82100000000000     0.73500000000000     0.73300000000000
C      C      0.26500000000000     0.82100000000000     0.73300000000000
C      C      0.82100000000000     0.26500000000000     0.26700000000000
C      C      0.26500000000000     0.17900000000000     0.26700000000000
C      C      0.17900000000000     0.73500000000000     0.26700000000000
C      C      0.73500000000000     0.82100000000000     0.26700000000000
C      C      0.93040000000000     0.34350000000000     0.91600000000000
C      C      0.65650000000000     0.93040000000000     0.91600000000000
C      C      0.06960000000000     0.65650000000000     0.91600000000000
C      C      0.34350000000000     0.06960000000000     0.91600000000000
C      C      0.06960000000000     0.34350000000000     0.08400000000000
C      C      0.34350000000000     0.93040000000000     0.08400000000000
C      C      0.93040000000000     0.65650000000000     0.08400000000000
C      C      0.65650000000000     0.06960000000000     0.08400000000000
C      C      0.92200000000000     0.25120000000000     0.90300000000000
C      C      0.74880000000000     0.92200000000000     0.90300000000000
C      C      0.07800000000000     0.74880000000000     0.90300000000000
C      C      0.25120000000000     0.07800000000000     0.90300000000000
C      C      0.07800000000000     0.25120000000000     0.09700000000000
C      C      0.25120000000000     0.92200000000000     0.09700000000000
C      C      0.92200000000000     0.74880000000000     0.09700000000000
C      C      0.74880000000000     0.07800000000000     0.09700000000000
C      C      0.99600000000000     0.37800000000000     0.54900000000000
C      C      0.62200000000000     0.99600000000000     0.54900000000000
C      C      0.00400000000000     0.62200000000000     0.54900000000000
C      C      0.37800000000000     0.00400000000000     0.54900000000000
C      C      0.00400000000000     0.37800000000000     0.45100000000000
C      C      0.37800000000000     0.99600000000000     0.45100000000000
C      C      0.99600000000000     0.62200000000000     0.45100000000000
C      C      0.62200000000000     0.00400000000000     0.45100000000000
C      C      0.99000000000000     0.30900000000000     0.59300000000000
C      C      0.69100000000000     0.99000000000000     0.59300000000000
C      C      0.01000000000000     0.69100000000000     0.59300000000000
C      C      0.30900000000000     0.01000000000000     0.59300000000000
C      C      0.01000000000000     0.30900000000000     0.40700000000000
C      C      0.30900000000000     0.99000000000000     0.40700000000000
C      C      0.99000000000000     0.69100000000000     0.40700000000000
C      C      0.69100000000000     0.01000000000000     0.40700000000000
C      C      0.99700000000000     0.23800000000000     0.55800000000000
C      C      0.76200000000000     0.99700000000000     0.55800000000000
C      C      0.00300000000000     0.76200000000000     0.55800000000000
C      C      0.23800000000000     0.00300000000000     0.55800000000000
C      C      0.00300000000000     0.23800000000000     0.44200000000000
C      C      0.23800000000000     0.99700000000000     0.44200000000000
C      C      0.99700000000000     0.76200000000000     0.44200000000000
C      C      0.76200000000000     0.00300000000000     0.44200000000000
C      C      0.99400000000000     0.16500000000000     0.60000000000000
C      C      0.83500000000000     0.99400000000000     0.60000000000000
C      C      0.00600000000000     0.83500000000000     0.60000000000000
C      C      0.16500000000000     0.00600000000000     0.60000000000000
C      C      0.00600000000000     0.16500000000000     0.40000000000000
C      C      0.16500000000000     0.99400000000000     0.40000000000000
C      C      0.99400000000000     0.83500000000000     0.40000000000000
C      C      0.83500000000000     0.00600000000000     0.40000000000000
H      H      0.15820000000000     0.43670000000000     0.58240000000000
H      H      0.56330000000000     0.15820000000000     0.58240000000000
H      H      0.84180000000000     0.56330000000000     0.58240000000000
H      H      0.43670000000000     0.84180000000000     0.58240000000000
H      H      0.84180000000000     0.43670000000000     0.41760000000000
H      H      0.43670000000000     0.15820000000000     0.41760000000000
H      H      0.15820000000000     0.56330000000000     0.41760000000000
H      H      0.56330000000000     0.84180000000000     0.41760000000000
H      H      0.29290000000000     0.39360000000000     0.49330000000000
H      H      0.60640000000000     0.29290000000000     0.49330000000000
H      H      0.70710000000000     0.60640000000000     0.49330000000000
H      H      0.39360000000000     0.70710000000000     0.49330000000000
H      H      0.70710000000000     0.39360000000000     0.50670000000000
H      H      0.39360000000000     0.29290000000000     0.50670000000000
H      H      0.29290000000000     0.60640000000000     0.50670000000000
H      H      0.60640000000000     0.70710000000000     0.50670000000000
H      H      0.41320000000000     0.41120000000000     0.61960000000000
H      H      0.58880000000000     0.41320000000000     0.61960000000000
H      H      0.58680000000000     0.58880000000000     0.61960000000000
H      H      0.41120000000000     0.58680000000000     0.61960000000000
H      H      0.58680000000000     0.41120000000000     0.38040000000000
H      H      0.41120000000000     0.41320000000000     0.38040000000000
H      H      0.41320000000000     0.58880000000000     0.38040000000000
H      H      0.58880000000000     0.58680000000000     0.38040000000000
H      H      0.35250000000000     0.47320000000000     0.78230000000000
H      H      0.52680000000000     0.35250000000000     0.78230000000000
H      H      0.64750000000000     0.52680000000000     0.78230000000000
H      H      0.47320000000000     0.64750000000000     0.78230000000000
H      H      0.64750000000000     0.47320000000000     0.21770000000000
H      H      0.47320000000000     0.35250000000000     0.21770000000000
H      H      0.35250000000000     0.52680000000000     0.21770000000000
H      H      0.52680000000000     0.64750000000000     0.21770000000000
H      H      0.21710000000000     0.20590000000000     0.59300000000000
H      H      0.79410000000000     0.21710000000000     0.59300000000000
H      H      0.78290000000000     0.79410000000000     0.59300000000000
H      H      0.20590000000000     0.78290000000000     0.59300000000000
H      H      0.78290000000000     0.20590000000000     0.40700000000000
H      H      0.20590000000000     0.21710000000000     0.40700000000000
H      H      0.21710000000000     0.79410000000000     0.40700000000000
H      H      0.79410000000000     0.78290000000000     0.40700000000000
H      H      0.36020000000000     0.20820000000000     0.65770000000000
H      H      0.79180000000000     0.36020000000000     0.65770000000000
H      H      0.63980000000000     0.79180000000000     0.65770000000000
H      H      0.20820000000000     0.63980000000000     0.65770000000000
H      H      0.63980000000000     0.20820000000000     0.34230000000000
H      H      0.20820000000000     0.36020000000000     0.34230000000000
H      H      0.36020000000000     0.79180000000000     0.34230000000000
H      H      0.79180000000000     0.63980000000000     0.34230000000000
H      H      0.36510000000000     0.26830000000000     0.83680000000000
H      H      0.73170000000000     0.36510000000000     0.83680000000000
H      H      0.63490000000000     0.73170000000000     0.83680000000000
H      H      0.26830000000000     0.63490000000000     0.83680000000000
H      H      0.63490000000000     0.26830000000000     0.16320000000000
H      H      0.26830000000000     0.36510000000000     0.16320000000000
H      H      0.36510000000000     0.73170000000000     0.16320000000000
H      H      0.73170000000000     0.63490000000000     0.16320000000000
H      H      0.21850000000000     0.31290000000000     0.88250000000000
H      H      0.68710000000000     0.21850000000000     0.88250000000000
H      H      0.78150000000000     0.68710000000000     0.88250000000000
H      H      0.31290000000000     0.78150000000000     0.88250000000000
H      H      0.78150000000000     0.31290000000000     0.11750000000000
H      H      0.31290000000000     0.21850000000000     0.11750000000000
H      H      0.21850000000000     0.68710000000000     0.11750000000000
H      H      0.68710000000000     0.78150000000000     0.11750000000000
H      H      0.11770000000000     0.27150000000000     0.72900000000000
H      H      0.72850000000000     0.11770000000000     0.72900000000000
H      H      0.88230000000000     0.72850000000000     0.72900000000000
H      H      0.27150000000000     0.88230000000000     0.72900000000000
H      H      0.88230000000000     0.27150000000000     0.27100000000000
H      H      0.27150000000000     0.11770000000000     0.27100000000000
H      H      0.11770000000000     0.72850000000000     0.27100000000000
H      H      0.72850000000000     0.88230000000000     0.27100000000000
H      H      0.86520000000000     0.23780000000000     0.88430000000000
H      H      0.76220000000000     0.86520000000000     0.88430000000000
H      H      0.13480000000000     0.76220000000000     0.88430000000000
H      H      0.23780000000000     0.13480000000000     0.88430000000000
H      H      0.13480000000000     0.23780000000000     0.11570000000000
H      H      0.23780000000000     0.86520000000000     0.11570000000000
H      H      0.86520000000000     0.76220000000000     0.11570000000000
H      H      0.76220000000000     0.13480000000000     0.11570000000000
H      H      0.93610000000000     0.22350000000000     0.96580000000000
H      H      0.77650000000000     0.93610000000000     0.96580000000000
H      H      0.06390000000000     0.77650000000000     0.96580000000000
H      H      0.22350000000000     0.06390000000000     0.96580000000000
H      H      0.06390000000000     0.22350000000000     0.03420000000000
H      H      0.22350000000000     0.93610000000000     0.03420000000000
H      H      0.93610000000000     0.77650000000000     0.03420000000000
H      H      0.77650000000000     0.06390000000000     0.03420000000000
H      H      0.95940000000000     0.23270000000000     0.84960000000000
H      H      0.76730000000000     0.95940000000000     0.84960000000000
H      H      0.04060000000000     0.76730000000000     0.84960000000000
H      H      0.23270000000000     0.04060000000000     0.84960000000000
H      H      0.04060000000000     0.23270000000000     0.15040000000000
H      H      0.23270000000000     0.95940000000000     0.15040000000000
H      H      0.95940000000000     0.76730000000000     0.15040000000000
H      H      0.76730000000000     0.04060000000000     0.15040000000000
H      H      0.99500000000000     0.42770000000000     0.58580000000000
H      H      0.57230000000000     0.99500000000000     0.58580000000000
H      H      0.00500000000000     0.57230000000000     0.58580000000000
H      H      0.42770000000000     0.00500000000000     0.58580000000000
H      H      0.00500000000000     0.42770000000000     0.41420000000000
H      H      0.42770000000000     0.99500000000000     0.41420000000000
H      H      0.99500000000000     0.57230000000000     0.41420000000000
H      H      0.57230000000000     0.00500000000000     0.41420000000000
H      H      0.97950000000000     0.31190000000000     0.66300000000000
H      H      0.68810000000000     0.97950000000000     0.66300000000000
H      H      0.02050000000000     0.68810000000000     0.66300000000000
H      H      0.31190000000000     0.02050000000000     0.66300000000000
H      H      0.02050000000000     0.31190000000000     0.33700000000000
H      H      0.31190000000000     0.97950000000000     0.33700000000000
H      H      0.97950000000000     0.68810000000000     0.33700000000000
H      H      0.68810000000000     0.02050000000000     0.33700000000000
H      H      0.94120000000000     0.15940000000000     0.63540000000000
H      H      0.84060000000000     0.94120000000000     0.63540000000000
H      H      0.05880000000000     0.84060000000000     0.63540000000000
H      H      0.15940000000000     0.05880000000000     0.63540000000000
H      H      0.05880000000000     0.15940000000000     0.36460000000000
H      H      0.15940000000000     0.94120000000000     0.36460000000000
H      H      0.94120000000000     0.84060000000000     0.36460000000000
H      H      0.84060000000000     0.05880000000000     0.36460000000000
H      H      0.03910000000000     0.16010000000000     0.64800000000000
H      H      0.83990000000000     0.03910000000000     0.64800000000000
H      H      0.96090000000000     0.83990000000000     0.64800000000000
H      H      0.16010000000000     0.96090000000000     0.64800000000000
H      H      0.96090000000000     0.16010000000000     0.35200000000000
H      H      0.16010000000000     0.03910000000000     0.35200000000000
H      H      0.03910000000000     0.83990000000000     0.35200000000000
H      H      0.83990000000000     0.96090000000000     0.35200000000000
H      H      0.99850000000000     0.12250000000000     0.54870000000000
H      H      0.87750000000000     0.99850000000000     0.54870000000000
H      H      0.00150000000000     0.87750000000000     0.54870000000000
H      H      0.12250000000000     0.00150000000000     0.54870000000000
H      H      0.00150000000000     0.12250000000000     0.45130000000000
H      H      0.12250000000000     0.99850000000000     0.45130000000000
H      H      0.99850000000000     0.87750000000000     0.45130000000000
H      H      0.87750000000000     0.00150000000000     0.45130000000000
