data_convert
_cell_volume           634.961105
_symmetry_space_group_name_H-M 'P 1'
_symmetry_Int_Tables_number 1
loop_
_symmetry_equiv_pos_site_id
_symmetry_equiv_pos_as_xyz
1 x,y,z
_cell_length_a         9.5182000000
_cell_length_b         9.5182000000
_cell_length_c         7.0087000000
_cell_angle_alpha        90.0000
_cell_angle_beta        90.0000
_cell_angle_gamma        90.0000
_cell_formula_units_Z 1
loop_
_atom_site_label
_atom_site_type_symbol
_atom_site_fract_x
_atom_site_fract_y
_atom_site_fract_z
Sr     Sr     0.00000000000000     0.00000000000000     0.00000000000000
Sr     Sr     0.50000000000000     0.50000000000000     0.00000000000000
Cu     Cu     0.26704000000000     0.98079000000000     0.39984000000000
Cu     Cu     0.51921000000000     0.76704000000000     0.39984000000000
Cu     Cu     0.73296000000000     0.01921000000000     0.39984000000000
Cu     Cu     0.48079000000000     0.23296000000000     0.39984000000000
Cu     Cu     0.23296000000000     0.48079000000000     0.60016000000000
Cu     Cu     0.98079000000000     0.26704000000000     0.60016000000000
Cu     Cu     0.76704000000000     0.51921000000000     0.60016000000000
Cu     Cu     0.01921000000000     0.73296000000000     0.60016000000000
Ti     Ti     0.50000000000000     0.00000000000000     0.98540000000000
Ti     Ti     0.00000000000000     0.50000000000000     0.01460000000000
P      P      0.27400000000000     0.18320000000000     0.74410000000000
P      P      0.31680000000000     0.77400000000000     0.74410000000000
P      P      0.72600000000000     0.81680000000000     0.74410000000000
P      P      0.68320000000000     0.22600000000000     0.74410000000000
P      P      0.22600000000000     0.68320000000000     0.25590000000000
P      P      0.18320000000000     0.27400000000000     0.25590000000000
P      P      0.77400000000000     0.31680000000000     0.25590000000000
P      P      0.81680000000000     0.72600000000000     0.25590000000000
O      O      0.34240000000000     0.13120000000000     0.55570000000000
O      O      0.36880000000000     0.84240000000000     0.55570000000000
O      O      0.65760000000000     0.86880000000000     0.55570000000000
O      O      0.63120000000000     0.15760000000000     0.55570000000000
O      O      0.15760000000000     0.63120000000000     0.44430000000000
O      O      0.13120000000000     0.34240000000000     0.44430000000000
O      O      0.84240000000000     0.36880000000000     0.44430000000000
O      O      0.86880000000000     0.65760000000000     0.44430000000000
O      O      0.11560000000000     0.15460000000000     0.73690000000000
O      O      0.34540000000000     0.61560000000000     0.73690000000000
O      O      0.88440000000000     0.84540000000000     0.73690000000000
O      O      0.65460000000000     0.38440000000000     0.73690000000000
O      O      0.38440000000000     0.65460000000000     0.26310000000000
O      O      0.15460000000000     0.11560000000000     0.26310000000000
O      O      0.61560000000000     0.34540000000000     0.26310000000000
O      O      0.84540000000000     0.88440000000000     0.26310000000000
O      O      0.32670000000000     0.09730000000000     0.91220000000000
O      O      0.40270000000000     0.82670000000000     0.91220000000000
O      O      0.67330000000000     0.90270000000000     0.91220000000000
O      O      0.59730000000000     0.17330000000000     0.91220000000000
O      O      0.17330000000000     0.59730000000000     0.08780000000000
O      O      0.09730000000000     0.32670000000000     0.08780000000000
O      O      0.82670000000000     0.40270000000000     0.08780000000000
O      O      0.90270000000000     0.67330000000000     0.08780000000000
O      O      0.50000000000000     0.00000000000000     0.22780000000000
O      O      0.00000000000000     0.50000000000000     0.77220000000000
O      O      0.31280000000000     0.33920000000000     0.76450000000000
O      O      0.16080000000000     0.81280000000000     0.76450000000000
O      O      0.68720000000000     0.66080000000000     0.76450000000000
O      O      0.83920000000000     0.18720000000000     0.76450000000000
O      O      0.18720000000000     0.83920000000000     0.23550000000000
O      O      0.33920000000000     0.31280000000000     0.23550000000000
O      O      0.81280000000000     0.16080000000000     0.23550000000000
O      O      0.66080000000000     0.68720000000000     0.23550000000000
