data_stdin
_audit_creation_method 'critic2-4f1eba8'
_cell_length_a        23.2339000000
_cell_length_b        23.2339000000
_cell_length_c        22.5750000000
_cell_angle_alpha        90.0000
_cell_angle_beta        90.0000
_cell_angle_gamma        90.0000
_cell_volume         12186.303515
_space_group_crystal_system tetragonal
_space_group_IT_number 93
_space_group_name_H-M_alt 'P4_222'
_space_group_name_Hall 'P 4c 2'
loop_
_space_group_symop_operation_xyz
  'x,y,z'
  '-y,x,-1/2+z'
  '-x,-y,z'
  'y,-x,-1/2+z'
  'x,-y,-z'
  '-y,-x,-1/2-z'
  '-x,y,-z'
  'y,x,-1/2-z'
loop_
_atom_site_label
_atom_site_type_symbol
_atom_site_fract_x
_atom_site_fract_y
_atom_site_fract_z
Cl     Cl     0.75754000000000     0.75754000000000     0.25000000000000
O      O      0.76510000000000     0.71750000000000     0.21160000000000
O      O      0.79450000000000     0.79450000000000     0.25000000000000
Cd     Cd     0.65404000000000     0.74982100000000     0.63892200000000
Cd     Cd     0.76359600000000     0.76359600000000     0.75000000000000
Cd     Cd     0.87370400000000     0.87370400000000     0.75000000000000
O      O      0.72567000000000     0.69991000000000     0.68416000000000
O      O      0.69858000000000     0.81695000000000     0.69656000000000
O      O      0.81296000000000     0.82733000000000     0.81217000000000
N      N      0.55650000000000     0.76960000000000     0.66020000000000
N      N      0.60940000000000     0.66460000000000     0.66200000000000
N      N      0.66890000000000     0.71730000000000     0.53900000000000
N      N      0.65450000000000     0.82880000000000     0.57720000000000
N      N      0.96640000000000     0.85650000000000     0.70730000000000
N      N      0.93555000000000     0.84630000000000     0.82290000000000
C      C      0.53420000000000     0.82210000000000     0.66470000000000
H      H      0.55860000000000     0.85360000000000     0.66010000000000
C      C      0.47600000000000     0.83250000000000     0.67590000000000
H      H      0.46160000000000     0.86980000000000     0.67880000000000
C      C      0.44070000000000     0.78530000000000     0.68240000000000
H      H      0.40150000000000     0.78990000000000     0.68890000000000
C      C      0.46400000000000     0.73230000000000     0.67910000000000
H      H      0.44060000000000     0.70030000000000     0.68510000000000
C      C      0.52220000000000     0.72430000000000     0.66710000000000
C      C      0.53120000000000     0.64630000000000     0.59370000000000
H      H      0.49090000000000     0.65220000000000     0.58660000000000
H      H      0.54020000000000     0.60620000000000     0.58930000000000
H      H      0.55320000000000     0.66830000000000     0.56580000000000
C      C      0.54610000000000     0.66580000000000     0.65720000000000
H      H      0.52930000000000     0.63890000000000     0.68590000000000
C      C      0.63260000000000     0.61660000000000     0.67590000000000
H      H      0.60710000000000     0.58730000000000     0.68590000000000
C      C      0.69290000000000     0.60160000000000     0.67840000000000
C      C      0.73620000000000     0.64400000000000     0.68190000000000
C      C      0.79310000000000     0.62490000000000     0.68380000000000
H      H      0.82240000000000     0.65200000000000     0.68640000000000
C      C      0.80730000000000     0.56820000000000     0.68180000000000
H      H      0.84590000000000     0.55760000000000     0.68390000000000
C      C      0.76630000000000     0.52690000000000     0.67700000000000
C      C      0.70870000000000     0.54110000000000     0.67640000000000
C      C      0.66730000000000     0.49720000000000     0.67580000000000
H      H      0.62840000000000     0.50660000000000     0.67560000000000
C      C      0.68450000000000     0.43850000000000     0.67530000000000
H      H      0.65670000000000     0.40960000000000     0.67590000000000
C      C      0.74150000000000     0.42400000000000     0.67410000000000
H      H      0.75280000000000     0.38570000000000     0.67200000000000
C      C      0.78130000000000     0.46660000000000     0.67600000000000
H      H      0.82000000000000     0.45660000000000     0.67670000000000
C      C      0.68480000000000     0.66400000000000     0.52300000000000
H      H      0.68840000000000     0.63570000000000     0.55200000000000
C      C      0.69630000000000     0.64980000000000     0.46340000000000
H      H      0.70750000000000     0.61260000000000     0.45350000000000
C      C      0.69120000000000     0.68950000000000     0.42150000000000
H      H      0.69940000000000     0.68070000000000     0.38220000000000
C      C      0.67380000000000     0.74280000000000     0.43720000000000
H      H      0.66900000000000     0.77050000000000     0.40790000000000
C      C      0.66250000000000     0.75790000000000     0.49670000000000
C      C      0.64150000000000     0.81690000000000     0.51490000000000
H      H      0.66050000000000     0.84590000000000     0.49020000000000
C      C      0.57740000000000     0.82040000000000     0.50490000000000
H      H      0.55820000000000     0.79420000000000     0.53110000000000
H      H      0.56890000000000     0.81040000000000     0.46460000000000
H      H      0.56450000000000     0.85900000000000     0.51260000000000
C      C      0.66300000000000     0.88050000000000     0.59000000000000
H      H      0.66170000000000     0.90620000000000     0.55840000000000
C      C      0.67450000000000     0.90590000000000     0.64760000000000
C      C      0.69500000000000     0.87360000000000     0.69630000000000
C      C      0.71320000000000     0.90390000000000     0.74850000000000
H      H      0.72710000000000     0.88290000000000     0.78050000000000
C      C      0.71080000000000     0.96120000000000     0.75280000000000
H      H      0.72340000000000     0.97910000000000     0.78730000000000
C      C      0.68910000000000     0.99560000000000     0.70480000000000
C      C      0.67060000000000     0.96880000000000     0.65360000000000
C      C      0.64690000000000     0.00350000000000     0.60960000000000
H      H      0.63410000000000     0.98660000000000     0.57470000000000
C      C      0.64190000000000     0.06260000000000     0.61640000000000
H      H      0.62400000000000     0.08420000000000     0.58700000000000
C      C      0.66240000000000     0.08910000000000     0.66430000000000
H      H      0.66120000000000     0.12910000000000     0.66710000000000
C      C      0.68510000000000     0.05690000000000     0.70940000000000
H      H      0.69820000000000     0.07510000000000     0.74350000000000
C      C      0.97680000000000     0.84870000000000     0.64950000000000
H      H      0.94750000000000     0.85610000000000     0.62240000000000
C      C      0.02890000000000     0.83010000000000     0.62900000000000
H      H      0.03460000000000     0.82490000000000     0.58860000000000
C      C      0.07240000000000     0.81930000000000     0.66780000000000
H      H      0.10810000000000     0.80690000000000     0.65430000000000
C      C      0.06260000000000     0.82690000000000     0.72680000000000
H      H      0.09170000000000     0.82010000000000     0.75420000000000
C      C      0.00820000000000     0.84500000000000     0.74550000000000
C      C      0.99600000000000     0.85430000000000     0.80840000000000
H      H      0.01910000000000     0.82750000000000     0.83200000000000
C      C      0.01340000000000     0.91720000000000     0.82430000000000
H      H      0.98810000000000     0.94360000000000     0.80460000000000
H      H      0.05230000000000     0.92410000000000     0.81170000000000
H      H      0.01070000000000     0.92260000000000     0.86630000000000
C      C      0.92350000000000     0.82400000000000     0.87390000000000
H      H      0.95470000000000     0.81060000000000     0.89560000000000
C      C      0.86860000000000     0.81720000000000     0.90100000000000
C      C      0.81600000000000     0.82150000000000     0.86970000000000
C      C      0.76400000000000     0.81960000000000     0.90270000000000
H      H      0.72920000000000     0.82240000000000     0.88260000000000
C      C      0.76330000000000     0.81410000000000     0.96130000000000
H      H      0.72800000000000     0.81510000000000     0.98090000000000
C      C      0.81390000000000     0.80690000000000     0.99480000000000
C      C      0.86750000000000     0.80620000000000     0.96440000000000
C      C      0.91680000000000     0.79290000000000     0.99930000000000
H      H      0.95250000000000     0.79090000000000     0.98080000000000
C      C      0.91400000000000     0.78330000000000     0.05660000000000
H      H      0.94740000000000     0.77340000000000     0.07680000000000
C      C      0.86180000000000     0.78760000000000     0.08860000000000
H      H      0.86090000000000     0.78260000000000     0.12950000000000
C      C      0.81280000000000     0.79920000000000     0.05740000000000
H      H      0.77800000000000     0.80210000000000     0.07750000000000
