data_stdin
_audit_creation_method 'critic2-4f1eba8'
_cell_length_a         6.7778000000
_cell_length_b         6.7778000000
_cell_length_c        18.1760000000
_cell_angle_alpha        90.0000
_cell_angle_beta        90.0000
_cell_angle_gamma        90.0000
_cell_volume           834.979500
_space_group_crystal_system tetragonal
_space_group_IT_number 96
_space_group_name_H-M_alt 'P4_32_12'
_space_group_name_Hall 'P 4nw 2abw'
loop_
_space_group_symop_operation_xyz
  'x,y,z'
  '-1/2-y,-1/2+x,-1/4+z'
  '-x,-y,-1/2+z'
  '-1/2+y,-1/2-x,-3/4+z'
  '-1/2+x,-1/2-y,-3/4-z'
  '-y,-x,-1/2-z'
  '-1/2-x,-1/2+y,-1/4-z'
  'y,x,-z'
loop_
_atom_site_label
_atom_site_type_symbol
_atom_site_fract_x
_atom_site_fract_y
_atom_site_fract_z
Ni     Ni     0.78755000000000     0.78755000000000     0.00000000000000
S      S      0.29089000000000     0.29089000000000     0.00000000000000
O      O      0.38141000000000     0.37752000000000     0.93345000000000
O      O      0.07495000000000     0.32772000000000     0.99841000000000
O      O      0.82612000000000     0.04476000000000     0.94656000000000
O      O      0.52757000000000     0.75395000000000     0.94299000000000
O      O      0.93243000000000     0.64022000000000     0.91507000000000
H      H      0.92220000000000     0.14593000000000     0.95888000000000
H      H      0.74951000000000     0.08165000000000     0.90379000000000
H      H      0.42963000000000     0.85448000000000     0.94270000000000
H      H      0.46394000000000     0.62418000000000     0.94037000000000
H      H      0.01042000000000     0.53081000000000     0.93414000000000
H      H      0.01639000000000     0.72461000000000     0.88361000000000
