data_convert
_cell_volume           833.937839
_symmetry_space_group_name_H-M 'P 1'
_symmetry_Int_Tables_number 1
loop_
_symmetry_equiv_pos_site_id
_symmetry_equiv_pos_as_xyz
1 x,y,z
_cell_length_a         7.4830000000
_cell_length_b         7.4830000000
_cell_length_c        14.8930000000
_cell_angle_alpha        90.0000
_cell_angle_beta        90.0000
_cell_angle_gamma        90.0000
_cell_formula_units_Z 1
loop_
_atom_site_label
_atom_site_type_symbol
_atom_site_fract_x
_atom_site_fract_y
_atom_site_fract_z
O      O      0.79240000000000     0.29240000000000     0.25000000000000
O      O      0.29240000000000     0.79240000000000     0.75000000000000
O      O      0.70760000000000     0.79240000000000     0.25000000000000
O      O      0.20760000000000     0.29240000000000     0.75000000000000
O      O      0.20760000000000     0.70760000000000     0.25000000000000
O      O      0.70760000000000     0.20760000000000     0.75000000000000
O      O      0.29240000000000     0.20760000000000     0.25000000000000
O      O      0.79240000000000     0.70760000000000     0.75000000000000
Ca     Ca     0.50000000000000     0.00000000000000     0.00000000000000
Ca     Ca     0.00000000000000     0.50000000000000     0.50000000000000
Ca     Ca     0.00000000000000     0.50000000000000     0.00000000000000
Ca     Ca     0.50000000000000     0.00000000000000     0.50000000000000
Th     Th     0.00000000000000     0.00000000000000     0.00000000000000
Th     Th     0.50000000000000     0.50000000000000     0.50000000000000
Si     Si     0.33350000000000     0.25400000000000     0.14790000000000
Si     Si     0.83350000000000     0.75400000000000     0.64790000000000
Si     Si     0.74600000000000     0.33350000000000     0.14790000000000
Si     Si     0.24600000000000     0.83350000000000     0.64790000000000
Si     Si     0.66650000000000     0.74600000000000     0.14790000000000
Si     Si     0.16650000000000     0.24600000000000     0.64790000000000
Si     Si     0.25400000000000     0.66650000000000     0.14790000000000
Si     Si     0.75400000000000     0.16650000000000     0.64790000000000
Si     Si     0.33350000000000     0.74600000000000     0.85210000000000
Si     Si     0.83350000000000     0.24600000000000     0.35210000000000
Si     Si     0.25400000000000     0.33350000000000     0.85210000000000
Si     Si     0.75400000000000     0.83350000000000     0.35210000000000
Si     Si     0.66650000000000     0.25400000000000     0.85210000000000
Si     Si     0.16650000000000     0.75400000000000     0.35210000000000
Si     Si     0.74600000000000     0.66650000000000     0.85210000000000
Si     Si     0.24600000000000     0.16650000000000     0.35210000000000
O      O      0.25530000000000     0.10750000000000     0.08180000000000
O      O      0.75530000000000     0.60750000000000     0.58180000000000
O      O      0.89250000000000     0.25530000000000     0.08180000000000
O      O      0.39250000000000     0.75530000000000     0.58180000000000
O      O      0.74470000000000     0.89250000000000     0.08180000000000
O      O      0.24470000000000     0.39250000000000     0.58180000000000
O      O      0.10750000000000     0.74470000000000     0.08180000000000
O      O      0.60750000000000     0.24470000000000     0.58180000000000
O      O      0.25530000000000     0.89250000000000     0.91820000000000
O      O      0.75530000000000     0.39250000000000     0.41820000000000
O      O      0.10750000000000     0.25530000000000     0.91820000000000
O      O      0.60750000000000     0.75530000000000     0.41820000000000
O      O      0.74470000000000     0.10750000000000     0.91820000000000
O      O      0.24470000000000     0.60750000000000     0.41820000000000
O      O      0.89250000000000     0.74470000000000     0.91820000000000
O      O      0.39250000000000     0.24470000000000     0.41820000000000
O      O      0.25440000000000     0.45210000000000     0.12510000000000
O      O      0.75440000000000     0.95210000000000     0.62510000000000
O      O      0.54790000000000     0.25440000000000     0.12510000000000
O      O      0.04790000000000     0.75440000000000     0.62510000000000
O      O      0.74560000000000     0.54790000000000     0.12510000000000
O      O      0.24560000000000     0.04790000000000     0.62510000000000
O      O      0.45210000000000     0.74560000000000     0.12510000000000
O      O      0.95210000000000     0.24560000000000     0.62510000000000
O      O      0.25440000000000     0.54790000000000     0.87490000000000
O      O      0.75440000000000     0.04790000000000     0.37490000000000
O      O      0.45210000000000     0.25440000000000     0.87490000000000
O      O      0.95210000000000     0.75440000000000     0.37490000000000
O      O      0.74560000000000     0.45210000000000     0.87490000000000
O      O      0.24560000000000     0.95210000000000     0.37490000000000
O      O      0.54790000000000     0.74560000000000     0.87490000000000
O      O      0.04790000000000     0.24560000000000     0.37490000000000
