data_convert
_cell_volume          1097.253519
_symmetry_space_group_name_H-M 'P 1'
_symmetry_Int_Tables_number 1
loop_
_symmetry_equiv_pos_site_id
_symmetry_equiv_pos_as_xyz
1 x,y,z
_cell_length_a         7.4190000000
_cell_length_b         7.4190000000
_cell_length_c        19.9350000000
_cell_angle_alpha        90.0000
_cell_angle_beta        90.0000
_cell_angle_gamma        90.0000
_cell_formula_units_Z 1
loop_
_atom_site_label
_atom_site_type_symbol
_atom_site_fract_x
_atom_site_fract_y
_atom_site_fract_z
Co     Co     0.00000000000000     0.00000000000000     0.00000000000000
Co     Co     0.50000000000000     0.50000000000000     0.50000000000000
Co     Co     0.00000000000000     0.50000000000000     0.25000000000000
Co     Co     0.50000000000000     0.00000000000000     0.75000000000000
Cl     Cl     0.22958000000000     0.77042000000000     0.00000000000000
Cl     Cl     0.72958000000000     0.27042000000000     0.50000000000000
Cl     Cl     0.77042000000000     0.22958000000000     0.00000000000000
Cl     Cl     0.27042000000000     0.72958000000000     0.50000000000000
Cl     Cl     0.22958000000000     0.72958000000000     0.25000000000000
Cl     Cl     0.72958000000000     0.22958000000000     0.75000000000000
Cl     Cl     0.77042000000000     0.27042000000000     0.25000000000000
Cl     Cl     0.27042000000000     0.77042000000000     0.75000000000000
N      N      0.14480000000000     0.15850000000000     0.07620000000000
N      N      0.64480000000000     0.65850000000000     0.57620000000000
N      N      0.85520000000000     0.84150000000000     0.07620000000000
N      N      0.35520000000000     0.34150000000000     0.57620000000000
N      N      0.14480000000000     0.34150000000000     0.17380000000000
N      N      0.64480000000000     0.84150000000000     0.67380000000000
N      N      0.85520000000000     0.65850000000000     0.17380000000000
N      N      0.35520000000000     0.15850000000000     0.67380000000000
N      N      0.84150000000000     0.85520000000000     0.92380000000000
N      N      0.34150000000000     0.35520000000000     0.42380000000000
N      N      0.15850000000000     0.14480000000000     0.92380000000000
N      N      0.65850000000000     0.64480000000000     0.42380000000000
N      N      0.15850000000000     0.35520000000000     0.32620000000000
N      N      0.65850000000000     0.85520000000000     0.82620000000000
N      N      0.84150000000000     0.64480000000000     0.32620000000000
N      N      0.34150000000000     0.14480000000000     0.82620000000000
C      C      0.06260000000000     0.25000000000000     0.12500000000000
C      C      0.56260000000000     0.75000000000000     0.62500000000000
C      C      0.93740000000000     0.75000000000000     0.12500000000000
C      C      0.43740000000000     0.25000000000000     0.62500000000000
C      C      0.75000000000000     0.93740000000000     0.87500000000000
C      C      0.25000000000000     0.43740000000000     0.37500000000000
C      C      0.25000000000000     0.06260000000000     0.87500000000000
C      C      0.75000000000000     0.56260000000000     0.37500000000000
H      H      0.93000000000000     0.25000000000000     0.12500000000000
H      H      0.43000000000000     0.75000000000000     0.62500000000000
H      H      0.07000000000000     0.75000000000000     0.12500000000000
H      H      0.57000000000000     0.25000000000000     0.62500000000000
H      H      0.75000000000000     0.07000000000000     0.87500000000000
H      H      0.25000000000000     0.57000000000000     0.37500000000000
H      H      0.25000000000000     0.93000000000000     0.87500000000000
H      H      0.75000000000000     0.43000000000000     0.37500000000000
C      C      0.32510000000000     0.16130000000000     0.07600000000000
C      C      0.82510000000000     0.66130000000000     0.57600000000000
C      C      0.67490000000000     0.83870000000000     0.07600000000000
C      C      0.17490000000000     0.33870000000000     0.57600000000000
C      C      0.32510000000000     0.33870000000000     0.17400000000000
C      C      0.82510000000000     0.83870000000000     0.67400000000000
C      C      0.67490000000000     0.66130000000000     0.17400000000000
C      C      0.17490000000000     0.16130000000000     0.67400000000000
C      C      0.83870000000000     0.67490000000000     0.92400000000000
C      C      0.33870000000000     0.17490000000000     0.42400000000000
C      C      0.16130000000000     0.32510000000000     0.92400000000000
C      C      0.66130000000000     0.82510000000000     0.42400000000000
C      C      0.16130000000000     0.17490000000000     0.32600000000000
C      C      0.66130000000000     0.67490000000000     0.82600000000000
C      C      0.83870000000000     0.82510000000000     0.32600000000000
C      C      0.33870000000000     0.32510000000000     0.82600000000000
H      H      0.38200000000000     0.10400000000000     0.03800000000000
H      H      0.88200000000000     0.60400000000000     0.53800000000000
H      H      0.61800000000000     0.89600000000000     0.03800000000000
H      H      0.11800000000000     0.39600000000000     0.53800000000000
H      H      0.38200000000000     0.39600000000000     0.21200000000000
H      H      0.88200000000000     0.89600000000000     0.71200000000000
H      H      0.61800000000000     0.60400000000000     0.21200000000000
H      H      0.11800000000000     0.10400000000000     0.71200000000000
H      H      0.89600000000000     0.61800000000000     0.96200000000000
H      H      0.39600000000000     0.11800000000000     0.46200000000000
H      H      0.10400000000000     0.38200000000000     0.96200000000000
H      H      0.60400000000000     0.88200000000000     0.46200000000000
H      H      0.10400000000000     0.11800000000000     0.28800000000000
H      H      0.60400000000000     0.61800000000000     0.78800000000000
H      H      0.89600000000000     0.88200000000000     0.28800000000000
H      H      0.39600000000000     0.38200000000000     0.78800000000000
C      C      0.42260000000000     0.25000000000000     0.12500000000000
C      C      0.92260000000000     0.75000000000000     0.62500000000000
C      C      0.57740000000000     0.75000000000000     0.12500000000000
C      C      0.07740000000000     0.25000000000000     0.62500000000000
C      C      0.75000000000000     0.57740000000000     0.87500000000000
C      C      0.25000000000000     0.07740000000000     0.37500000000000
C      C      0.25000000000000     0.42260000000000     0.87500000000000
C      C      0.75000000000000     0.92260000000000     0.37500000000000
H      H      0.56900000000000     0.25000000000000     0.12500000000000
H      H      0.06900000000000     0.75000000000000     0.62500000000000
H      H      0.43100000000000     0.75000000000000     0.12500000000000
H      H      0.93100000000000     0.25000000000000     0.62500000000000
H      H      0.75000000000000     0.43100000000000     0.87500000000000
H      H      0.25000000000000     0.93100000000000     0.37500000000000
H      H      0.25000000000000     0.56900000000000     0.87500000000000
H      H      0.75000000000000     0.06900000000000     0.37500000000000
