data_convert
_cell_volume           989.482824
_symmetry_space_group_name_H-M 'P 1'
_symmetry_Int_Tables_number 1
loop_
_symmetry_equiv_pos_site_id
_symmetry_equiv_pos_as_xyz
1 x,y,z
_cell_length_a        11.2200000000
_cell_length_b        11.2200000000
_cell_length_c         7.8600000000
_cell_angle_alpha        90.0000
_cell_angle_beta        90.0000
_cell_angle_gamma        90.0000
_cell_formula_units_Z 1
loop_
_atom_site_label
_atom_site_type_symbol
_atom_site_fract_x
_atom_site_fract_y
_atom_site_fract_z
Se     Se     0.10330000000000     0.24050000000000     0.94850000000000
Se     Se     0.75950000000000     0.10330000000000     0.94850000000000
Se     Se     0.89670000000000     0.24050000000000     0.44850000000000
Se     Se     0.75950000000000     0.89670000000000     0.44850000000000
Se     Se     0.89670000000000     0.75950000000000     0.94850000000000
Se     Se     0.10330000000000     0.75950000000000     0.44850000000000
Se     Se     0.24050000000000     0.89670000000000     0.94850000000000
Se     Se     0.24050000000000     0.10330000000000     0.44850000000000
Se     Se     0.36710000000000     0.28180000000000     0.05150000000000
Se     Se     0.71820000000000     0.36710000000000     0.05150000000000
Se     Se     0.63290000000000     0.28180000000000     0.55150000000000
Se     Se     0.71820000000000     0.63290000000000     0.55150000000000
Se     Se     0.63290000000000     0.71820000000000     0.05150000000000
Se     Se     0.36710000000000     0.71820000000000     0.55150000000000
Se     Se     0.28180000000000     0.63290000000000     0.05150000000000
Se     Se     0.28180000000000     0.36710000000000     0.55150000000000
V      V      0.00000000000000     0.00000000000000     0.12000000000000
V      V      0.00000000000000     0.00000000000000     0.62000000000000
V      V      0.50000000000000     0.50000000000000     0.37590000000000
V      V      0.50000000000000     0.50000000000000     0.87590000000000
V      V      0.00000000000000     0.50000000000000     0.04570000000000
V      V      0.50000000000000     0.00000000000000     0.04570000000000
V      V      0.00000000000000     0.50000000000000     0.54570000000000
V      V      0.50000000000000     0.00000000000000     0.54570000000000
O      O      0.00000000000000     0.00000000000000     0.32600000000000
O      O      0.00000000000000     0.00000000000000     0.82600000000000
O      O      0.50000000000000     0.50000000000000     0.17200000000000
O      O      0.50000000000000     0.50000000000000     0.67200000000000
O      O      0.00000000000000     0.50000000000000     0.34000000000000
O      O      0.50000000000000     0.00000000000000     0.34000000000000
O      O      0.00000000000000     0.50000000000000     0.84000000000000
O      O      0.50000000000000     0.00000000000000     0.84000000000000
O      O      0.12330000000000     0.12000000000000     0.07900000000000
O      O      0.88000000000000     0.12330000000000     0.07900000000000
O      O      0.87670000000000     0.12000000000000     0.57900000000000
O      O      0.88000000000000     0.87670000000000     0.57900000000000
O      O      0.87670000000000     0.88000000000000     0.07900000000000
O      O      0.12330000000000     0.88000000000000     0.57900000000000
O      O      0.12000000000000     0.87670000000000     0.07900000000000
O      O      0.12000000000000     0.12330000000000     0.57900000000000
O      O      0.25460000000000     0.25500000000000     0.38900000000000
O      O      0.74500000000000     0.25460000000000     0.38900000000000
O      O      0.74540000000000     0.25500000000000     0.88900000000000
O      O      0.74500000000000     0.74540000000000     0.88900000000000
O      O      0.74540000000000     0.74500000000000     0.38900000000000
O      O      0.25460000000000     0.74500000000000     0.88900000000000
O      O      0.25500000000000     0.74540000000000     0.38900000000000
O      O      0.25500000000000     0.25460000000000     0.88900000000000
O      O      0.09190000000000     0.35110000000000     0.09500000000000
O      O      0.64890000000000     0.09190000000000     0.09500000000000
O      O      0.90810000000000     0.35110000000000     0.59500000000000
O      O      0.64890000000000     0.90810000000000     0.59500000000000
O      O      0.90810000000000     0.64890000000000     0.09500000000000
O      O      0.09190000000000     0.64890000000000     0.59500000000000
O      O      0.35110000000000     0.90810000000000     0.09500000000000
O      O      0.35110000000000     0.09190000000000     0.59500000000000
O      O      0.32710000000000     0.47590000000000     0.41700000000000
O      O      0.52410000000000     0.32710000000000     0.41700000000000
O      O      0.67290000000000     0.47590000000000     0.91700000000000
O      O      0.52410000000000     0.67290000000000     0.91700000000000
O      O      0.67290000000000     0.52410000000000     0.41700000000000
O      O      0.32710000000000     0.52410000000000     0.91700000000000
O      O      0.47590000000000     0.67290000000000     0.41700000000000
O      O      0.47590000000000     0.32710000000000     0.91700000000000
O      O      0.40590000000000     0.14320000000000     0.09900000000000
O      O      0.85680000000000     0.40590000000000     0.09900000000000
O      O      0.59410000000000     0.14320000000000     0.59900000000000
O      O      0.85680000000000     0.59410000000000     0.59900000000000
O      O      0.59410000000000     0.85680000000000     0.09900000000000
O      O      0.40590000000000     0.85680000000000     0.59900000000000
O      O      0.14320000000000     0.59410000000000     0.09900000000000
O      O      0.14320000000000     0.40590000000000     0.59900000000000
