data_convert
_cell_volume           493.288354
_symmetry_space_group_name_H-M 'P 1'
_symmetry_Int_Tables_number 1
loop_
_symmetry_equiv_pos_site_id
_symmetry_equiv_pos_as_xyz
1 x,y,z
_cell_length_a         7.6180000000
_cell_length_b         7.6180000000
_cell_length_c         8.5000000000
_cell_angle_alpha        90.0000
_cell_angle_beta        90.0000
_cell_angle_gamma        90.0000
_cell_formula_units_Z 1
loop_
_atom_site_label
_atom_site_type_symbol
_atom_site_fract_x
_atom_site_fract_y
_atom_site_fract_z
Ge     Ge     0.33180000000000     0.50000000000000     0.86550000000000
Ge     Ge     0.50000000000000     0.33180000000000     0.36550000000000
Ge     Ge     0.66820000000000     0.50000000000000     0.86550000000000
Ge     Ge     0.50000000000000     0.66820000000000     0.36550000000000
Ba     Ba     0.50000000000000     0.00000000000000     0.02760000000000
Ba     Ba     0.00000000000000     0.50000000000000     0.52760000000000
Ba     Ba     0.00000000000000     0.00000000000000     0.00000000000000
Ba     Ba     0.00000000000000     0.00000000000000     0.50000000000000
P      P      0.23150000000000     0.24880000000000     0.25640000000000
P      P      0.75120000000000     0.23150000000000     0.75640000000000
P      P      0.76850000000000     0.75120000000000     0.25640000000000
P      P      0.24880000000000     0.76850000000000     0.75640000000000
P      P      0.76850000000000     0.24880000000000     0.25640000000000
P      P      0.75120000000000     0.76850000000000     0.75640000000000
P      P      0.23150000000000     0.75120000000000     0.25640000000000
P      P      0.24880000000000     0.23150000000000     0.75640000000000
Ge     Ge     0.50000000000000     0.16560000000000     0.61410000000000
Ge     Ge     0.83440000000000     0.50000000000000     0.11410000000000
Ge     Ge     0.50000000000000     0.83440000000000     0.61410000000000
Ge     Ge     0.16560000000000     0.50000000000000     0.11410000000000
