data_convert
_cell_volume           518.718680
_symmetry_space_group_name_H-M 'P 1'
_symmetry_Int_Tables_number 1
loop_
_symmetry_equiv_pos_site_id
_symmetry_equiv_pos_as_xyz
1 x,y,z
_cell_length_a         9.8930000000
_cell_length_b         9.8930000000
_cell_length_c         5.3000000000
_cell_angle_alpha        90.0000
_cell_angle_beta        90.0000
_cell_angle_gamma        90.0000
_cell_formula_units_Z 1
loop_
_atom_site_label
_atom_site_type_symbol
_atom_site_fract_x
_atom_site_fract_y
_atom_site_fract_z
Zn     Zn     0.00000000000000     0.50000000000000     0.25420000000000
Zn     Zn     0.50000000000000     0.00000000000000     0.75420000000000
Zn     Zn     0.50000000000000     0.50000000000000     0.50420000000000
Zn     Zn     0.00000000000000     0.00000000000000     0.00420000000000
C      C      0.19680000000000     0.50000000000000     0.26620000000000
C      C      0.69680000000000     0.00000000000000     0.76620000000000
C      C      0.30320000000000     0.00000000000000     0.76620000000000
C      C      0.80320000000000     0.50000000000000     0.26620000000000
C      C      0.50000000000000     0.69680000000000     0.51620000000000
C      C      0.00000000000000     0.19680000000000     0.01620000000000
C      C      0.00000000000000     0.80320000000000     0.01620000000000
C      C      0.50000000000000     0.30320000000000     0.51620000000000
H      H      0.22660000000000     0.58070000000000     0.36180000000000
H      H      0.72660000000000     0.08070000000000     0.86180000000000
H      H      0.27340000000000     0.91930000000000     0.86180000000000
H      H      0.77340000000000     0.41930000000000     0.36180000000000
H      H      0.41930000000000     0.72660000000000     0.61180000000000
H      H      0.91930000000000     0.22660000000000     0.11180000000000
H      H      0.08070000000000     0.77340000000000     0.11180000000000
H      H      0.58070000000000     0.27340000000000     0.61180000000000
H      H      0.22660000000000     0.41930000000000     0.36180000000000
H      H      0.72660000000000     0.91930000000000     0.86180000000000
H      H      0.27340000000000     0.08070000000000     0.86180000000000
H      H      0.77340000000000     0.58070000000000     0.36180000000000
H      H      0.41930000000000     0.27340000000000     0.61180000000000
H      H      0.91930000000000     0.77340000000000     0.11180000000000
H      H      0.08070000000000     0.22660000000000     0.11180000000000
H      H      0.58070000000000     0.72660000000000     0.61180000000000
C      C      0.26990000000000     0.50000000000000     0.00690000000000
C      C      0.76990000000000     0.00000000000000     0.50690000000000
C      C      0.23010000000000     0.00000000000000     0.50690000000000
C      C      0.73010000000000     0.50000000000000     0.00690000000000
C      C      0.50000000000000     0.76990000000000     0.25690000000000
C      C      0.00000000000000     0.26990000000000     0.75690000000000
C      C      0.00000000000000     0.73010000000000     0.75690000000000
C      C      0.50000000000000     0.23010000000000     0.25690000000000
H      H      0.36800000000000     0.50000000000000     0.03360000000000
H      H      0.86800000000000     0.00000000000000     0.53360000000000
H      H      0.13200000000000     0.00000000000000     0.53360000000000
H      H      0.63200000000000     0.50000000000000     0.03360000000000
H      H      0.50000000000000     0.86800000000000     0.28360000000000
H      H      0.00000000000000     0.36800000000000     0.78360000000000
H      H      0.00000000000000     0.63200000000000     0.78360000000000
H      H      0.50000000000000     0.13200000000000     0.28360000000000
H      H      0.24400000000000     0.58090000000000     0.91180000000000
H      H      0.74400000000000     0.08090000000000     0.41180000000000
H      H      0.25600000000000     0.91910000000000     0.41180000000000
H      H      0.75600000000000     0.41910000000000     0.91180000000000
H      H      0.41910000000000     0.74400000000000     0.16180000000000
H      H      0.91910000000000     0.24400000000000     0.66180000000000
H      H      0.08090000000000     0.75600000000000     0.66180000000000
H      H      0.58090000000000     0.25600000000000     0.16180000000000
H      H      0.24400000000000     0.41910000000000     0.91180000000000
H      H      0.74400000000000     0.91910000000000     0.41180000000000
H      H      0.25600000000000     0.08090000000000     0.41180000000000
H      H      0.75600000000000     0.58090000000000     0.91180000000000
H      H      0.41910000000000     0.25600000000000     0.16180000000000
H      H      0.91910000000000     0.75600000000000     0.66180000000000
H      H      0.08090000000000     0.24400000000000     0.66180000000000
H      H      0.58090000000000     0.74400000000000     0.16180000000000
