data_convert
_cell_volume           920.126034
_symmetry_space_group_name_H-M 'P 1'
_symmetry_Int_Tables_number 1
loop_
_symmetry_equiv_pos_site_id
_symmetry_equiv_pos_as_xyz
1 x,y,z
_cell_length_a         9.4700000000
_cell_length_b         9.4700000000
_cell_length_c        10.2600000000
_cell_angle_alpha        90.0000
_cell_angle_beta        90.0000
_cell_angle_gamma        90.0000
_cell_formula_units_Z 1
loop_
_atom_site_label
_atom_site_type_symbol
_atom_site_fract_x
_atom_site_fract_y
_atom_site_fract_z
Li     Li     0.15800000000000     0.15800000000000     0.86000000000000
Li     Li     0.65800000000000     0.65800000000000     0.36000000000000
Li     Li     0.84200000000000     0.34200000000000     0.61000000000000
Li     Li     0.34200000000000     0.84200000000000     0.11000000000000
Li     Li     0.84200000000000     0.65800000000000     0.11000000000000
Li     Li     0.34200000000000     0.15800000000000     0.61000000000000
Li     Li     0.65800000000000     0.34200000000000     0.86000000000000
Li     Li     0.15800000000000     0.84200000000000     0.36000000000000
Li     Li     0.34200000000000     0.34200000000000     0.36000000000000
Li     Li     0.84200000000000     0.84200000000000     0.86000000000000
Li     Li     0.65800000000000     0.15800000000000     0.11000000000000
Li     Li     0.15800000000000     0.65800000000000     0.61000000000000
Li     Li     0.65800000000000     0.84200000000000     0.61000000000000
Li     Li     0.15800000000000     0.34200000000000     0.11000000000000
Li     Li     0.84200000000000     0.15800000000000     0.36000000000000
Li     Li     0.34200000000000     0.65800000000000     0.86000000000000
Bi     Bi     0.08100000000000     0.16900000000000     0.19400000000000
Bi     Bi     0.58100000000000     0.66900000000000     0.69400000000000
Bi     Bi     0.83100000000000     0.41900000000000     0.94400000000000
Bi     Bi     0.33100000000000     0.91900000000000     0.44400000000000
Bi     Bi     0.83100000000000     0.58100000000000     0.44400000000000
Bi     Bi     0.33100000000000     0.08100000000000     0.94400000000000
Bi     Bi     0.58100000000000     0.33100000000000     0.19400000000000
Bi     Bi     0.08100000000000     0.83100000000000     0.69400000000000
Bi     Bi     0.41900000000000     0.33100000000000     0.69400000000000
Bi     Bi     0.91900000000000     0.83100000000000     0.19400000000000
Bi     Bi     0.66900000000000     0.08100000000000     0.44400000000000
Bi     Bi     0.16900000000000     0.58100000000000     0.94400000000000
Bi     Bi     0.66900000000000     0.91900000000000     0.94400000000000
Bi     Bi     0.16900000000000     0.41900000000000     0.44400000000000
Bi     Bi     0.91900000000000     0.16900000000000     0.69400000000000
Bi     Bi     0.41900000000000     0.66900000000000     0.19400000000000
Bi     Bi     0.11500000000000     0.94600000000000     0.08300000000000
Bi     Bi     0.61500000000000     0.44600000000000     0.58300000000000
Bi     Bi     0.05400000000000     0.38500000000000     0.83300000000000
Bi     Bi     0.55400000000000     0.88500000000000     0.33300000000000
Bi     Bi     0.05400000000000     0.61500000000000     0.33300000000000
Bi     Bi     0.55400000000000     0.11500000000000     0.83300000000000
Bi     Bi     0.61500000000000     0.55400000000000     0.08300000000000
Bi     Bi     0.11500000000000     0.05400000000000     0.58300000000000
Bi     Bi     0.38500000000000     0.55400000000000     0.58300000000000
Bi     Bi     0.88500000000000     0.05400000000000     0.08300000000000
Bi     Bi     0.44600000000000     0.11500000000000     0.33300000000000
Bi     Bi     0.94600000000000     0.61500000000000     0.83300000000000
Bi     Bi     0.44600000000000     0.88500000000000     0.83300000000000
Bi     Bi     0.94600000000000     0.38500000000000     0.33300000000000
Bi     Bi     0.88500000000000     0.94600000000000     0.58300000000000
Bi     Bi     0.38500000000000     0.44600000000000     0.08300000000000
O      O      0.13500000000000     0.28300000000000     0.26000000000000
O      O      0.63500000000000     0.78300000000000     0.76000000000000
O      O      0.71700000000000     0.36500000000000     0.01000000000000
O      O      0.21700000000000     0.86500000000000     0.51000000000000
O      O      0.71700000000000     0.63500000000000     0.51000000000000
O      O      0.21700000000000     0.13500000000000     0.01000000000000
O      O      0.63500000000000     0.21700000000000     0.26000000000000
O      O      0.13500000000000     0.71700000000000     0.76000000000000
O      O      0.36500000000000     0.21700000000000     0.76000000000000
O      O      0.86500000000000     0.71700000000000     0.26000000000000
O      O      0.78300000000000     0.13500000000000     0.51000000000000
O      O      0.28300000000000     0.63500000000000     0.01000000000000
O      O      0.78300000000000     0.86500000000000     0.01000000000000
O      O      0.28300000000000     0.36500000000000     0.51000000000000
O      O      0.86500000000000     0.28300000000000     0.76000000000000
O      O      0.36500000000000     0.78300000000000     0.26000000000000
O      O      0.17900000000000     0.06700000000000     0.15000000000000
O      O      0.67900000000000     0.56700000000000     0.65000000000000
O      O      0.93300000000000     0.32100000000000     0.90000000000000
O      O      0.43300000000000     0.82100000000000     0.40000000000000
O      O      0.93300000000000     0.67900000000000     0.40000000000000
O      O      0.43300000000000     0.17900000000000     0.90000000000000
O      O      0.67900000000000     0.43300000000000     0.15000000000000
O      O      0.17900000000000     0.93300000000000     0.65000000000000
O      O      0.32100000000000     0.43300000000000     0.65000000000000
O      O      0.82100000000000     0.93300000000000     0.15000000000000
O      O      0.56700000000000     0.17900000000000     0.40000000000000
O      O      0.06700000000000     0.67900000000000     0.90000000000000
O      O      0.56700000000000     0.82100000000000     0.90000000000000
O      O      0.06700000000000     0.32100000000000     0.40000000000000
O      O      0.82100000000000     0.06700000000000     0.65000000000000
O      O      0.32100000000000     0.56700000000000     0.15000000000000
O      O      0.94000000000000     0.15700000000000     0.17100000000000
O      O      0.44000000000000     0.65700000000000     0.67100000000000
O      O      0.84300000000000     0.56000000000000     0.92100000000000
O      O      0.34300000000000     0.06000000000000     0.42100000000000
O      O      0.84300000000000     0.44000000000000     0.42100000000000
O      O      0.34300000000000     0.94000000000000     0.92100000000000
O      O      0.44000000000000     0.34300000000000     0.17100000000000
O      O      0.94000000000000     0.84300000000000     0.67100000000000
O      O      0.56000000000000     0.34300000000000     0.67100000000000
O      O      0.06000000000000     0.84300000000000     0.17100000000000
O      O      0.65700000000000     0.94000000000000     0.42100000000000
O      O      0.15700000000000     0.44000000000000     0.92100000000000
O      O      0.65700000000000     0.06000000000000     0.92100000000000
O      O      0.15700000000000     0.56000000000000     0.42100000000000
O      O      0.06000000000000     0.15700000000000     0.67100000000000
O      O      0.56000000000000     0.65700000000000     0.17100000000000
O      O      0.00000000000000     0.00000000000000     0.00000000000000
O      O      0.50000000000000     0.50000000000000     0.50000000000000
O      O      0.00000000000000     0.50000000000000     0.75000000000000
O      O      0.50000000000000     0.00000000000000     0.25000000000000
O      O      0.00000000000000     0.50000000000000     0.25000000000000
O      O      0.50000000000000     0.00000000000000     0.75000000000000
O      O      0.50000000000000     0.50000000000000     0.00000000000000
O      O      0.00000000000000     0.00000000000000     0.50000000000000
