data_convert
_cell_volume           151.005092
_symmetry_space_group_name_H-M 'P 1'
_symmetry_Int_Tables_number 1
loop_
_symmetry_equiv_pos_site_id
_symmetry_equiv_pos_as_xyz
1 x,y,z
_cell_length_a         5.6610000000
_cell_length_b         5.6610000000
_cell_length_c         4.7120000000
_cell_angle_alpha        90.0000
_cell_angle_beta        90.0000
_cell_angle_gamma        90.0000
_cell_formula_units_Z 1
loop_
_atom_site_label
_atom_site_type_symbol
_atom_site_fract_x
_atom_site_fract_y
_atom_site_fract_z
C      C      0.00000000000000     0.50000000000000     0.33300000000000
C      C      0.50000000000000     0.00000000000000     0.66700000000000
O      O      0.00000000000000     0.50000000000000     0.59680000000000
O      O      0.50000000000000     0.00000000000000     0.40320000000000
N      N      0.14390000000000     0.64390000000000     0.18320000000000
N      N      0.85610000000000     0.35610000000000     0.18320000000000
N      N      0.64390000000000     0.85610000000000     0.81680000000000
N      N      0.35610000000000     0.14390000000000     0.81680000000000
H      H      0.25220000000000     0.75220000000000     0.28390000000000
H      H      0.74780000000000     0.24780000000000     0.28390000000000
H      H      0.75220000000000     0.74780000000000     0.71610000000000
H      H      0.24780000000000     0.25220000000000     0.71610000000000
H      H      0.13650000000000     0.63650000000000     0.97240000000000
H      H      0.86350000000000     0.36350000000000     0.97240000000000
H      H      0.63650000000000     0.86350000000000     0.02760000000000
H      H      0.36350000000000     0.13650000000000     0.02760000000000
