data_convert
_cell_volume           275.037850
_symmetry_space_group_name_H-M 'P 1'
_symmetry_Int_Tables_number 1
loop_
_symmetry_equiv_pos_site_id
_symmetry_equiv_pos_as_xyz
1 x,y,z
_cell_length_a         5.5760000000
_cell_length_b         5.5760000000
_cell_length_c         8.8460000000
_cell_angle_alpha        90.0000
_cell_angle_beta        90.0000
_cell_angle_gamma        90.0000
_cell_formula_units_Z 1
loop_
_atom_site_label
_atom_site_type_symbol
_atom_site_fract_x
_atom_site_fract_y
_atom_site_fract_z
Os     Os     0.00000000000000     0.50000000000000     0.37150000000000
Os     Os     0.50000000000000     0.00000000000000     0.62850000000000
Os     Os     0.00000000000000     0.50000000000000     0.87150000000000
Os     Os     0.50000000000000     0.00000000000000     0.12850000000000
Os     Os     0.00000000000000     0.00000000000000     0.00000000000000
Os     Os     0.00000000000000     0.00000000000000     0.50000000000000
Si     Si     0.20690000000000     0.35590000000000     0.09030000000000
Si     Si     0.35590000000000     0.79310000000000     0.90970000000000
Si     Si     0.79310000000000     0.64410000000000     0.09030000000000
Si     Si     0.64410000000000     0.20690000000000     0.90970000000000
Si     Si     0.79310000000000     0.35590000000000     0.59030000000000
Si     Si     0.35590000000000     0.20690000000000     0.40970000000000
Si     Si     0.20690000000000     0.64410000000000     0.59030000000000
Si     Si     0.64410000000000     0.79310000000000     0.40970000000000
Si     Si     0.16850000000000     0.16850000000000     0.75000000000000
Si     Si     0.16850000000000     0.83150000000000     0.25000000000000
Si     Si     0.83150000000000     0.83150000000000     0.75000000000000
Si     Si     0.83150000000000     0.16850000000000     0.25000000000000
Os     Os     0.50000000000000     0.50000000000000     0.25000000000000
Os     Os     0.50000000000000     0.50000000000000     0.75000000000000
