data_convert
_cell_volume           337.279788
_symmetry_space_group_name_H-M 'P 1'
_symmetry_Int_Tables_number 1
loop_
_symmetry_equiv_pos_site_id
_symmetry_equiv_pos_as_xyz
1 x,y,z
_cell_length_a         7.7400000000
_cell_length_b         7.7400000000
_cell_length_c         5.6300000000
_cell_angle_alpha        90.0000
_cell_angle_beta        90.0000
_cell_angle_gamma        90.0000
_cell_formula_units_Z 1
loop_
_atom_site_label
_atom_site_type_symbol
_atom_site_fract_x
_atom_site_fract_y
_atom_site_fract_z
Bi     Bi     0.02000000000000     0.25000000000000     0.25000000000000
Bi     Bi     0.75000000000000     0.52000000000000     0.75000000000000
Bi     Bi     0.25000000000000     0.98000000000000     0.75000000000000
Bi     Bi     0.52000000000000     0.25000000000000     0.25000000000000
Bi     Bi     0.98000000000000     0.75000000000000     0.25000000000000
Bi     Bi     0.25000000000000     0.48000000000000     0.75000000000000
Bi     Bi     0.75000000000000     0.02000000000000     0.75000000000000
Bi     Bi     0.48000000000000     0.75000000000000     0.25000000000000
O      O      0.77000000000000     0.27000000000000     0.00000000000000
O      O      0.27000000000000     0.23000000000000     0.00000000000000
O      O      0.23000000000000     0.73000000000000     0.00000000000000
O      O      0.73000000000000     0.77000000000000     0.00000000000000
O      O      0.77000000000000     0.27000000000000     0.50000000000000
O      O      0.27000000000000     0.23000000000000     0.50000000000000
O      O      0.23000000000000     0.73000000000000     0.50000000000000
O      O      0.73000000000000     0.77000000000000     0.50000000000000
O      O      0.00000000000000     0.50000000000000     0.00000000000000
O      O      0.50000000000000     0.00000000000000     0.00000000000000
O      O      0.00000000000000     0.00000000000000     0.50000000000000
O      O      0.50000000000000     0.50000000000000     0.50000000000000
