data_convert
_cell_volume           187.229949
_symmetry_space_group_name_H-M 'P 1'
_symmetry_Int_Tables_number 1
loop_
_symmetry_equiv_pos_site_id
_symmetry_equiv_pos_as_xyz
1 x,y,z
_cell_length_a         5.5526000000
_cell_length_b         5.5526000000
_cell_length_c         6.0727100000
_cell_angle_alpha        90.0000
_cell_angle_beta        90.0000
_cell_angle_gamma        90.0000
_cell_formula_units_Z 1
loop_
_atom_site_label
_atom_site_type_symbol
_atom_site_fract_x
_atom_site_fract_y
_atom_site_fract_z
Mn     Mn     0.00000000000000     0.00000000000000     0.50000000000000
Mn     Mn     0.50000000000000     0.50000000000000     0.00000000000000
B      B      0.25200000000000     0.24800000000000     0.25000000000000
B      B      0.24800000000000     0.74800000000000     0.75000000000000
B      B      0.74800000000000     0.75200000000000     0.25000000000000
B      B      0.75200000000000     0.25200000000000     0.75000000000000
H      H      0.22200000000000     0.03800000000000     0.21200000000000
H      H      0.03800000000000     0.77800000000000     0.78800000000000
H      H      0.77800000000000     0.96200000000000     0.21200000000000
H      H      0.96200000000000     0.22200000000000     0.78800000000000
H      H      0.27800000000000     0.53800000000000     0.71200000000000
H      H      0.46200000000000     0.27800000000000     0.28800000000000
H      H      0.72200000000000     0.46200000000000     0.71200000000000
H      H      0.53800000000000     0.72200000000000     0.28800000000000
H      H      0.36000000000000     0.82500000000000     0.91406000000000
H      H      0.82500000000000     0.64000000000000     0.08594000000000
H      H      0.64000000000000     0.17500000000000     0.91406000000000
H      H      0.17500000000000     0.36000000000000     0.08594000000000
H      H      0.14000000000000     0.32500000000000     0.41406000000000
H      H      0.67500000000000     0.14000000000000     0.58594000000000
H      H      0.86000000000000     0.67500000000000     0.41406000000000
H      H      0.32500000000000     0.86000000000000     0.58594000000000
