data_convert
_cell_volume          1708.135323
_symmetry_space_group_name_H-M 'P 1'
_symmetry_Int_Tables_number 1
loop_
_symmetry_equiv_pos_site_id
_symmetry_equiv_pos_as_xyz
1 x,y,z
_cell_length_a        11.6660000000
_cell_length_b        11.6660000000
_cell_length_c        12.5510000000
_cell_angle_alpha        90.0000
_cell_angle_beta        90.0000
_cell_angle_gamma        90.0000
_cell_formula_units_Z 1
loop_
_atom_site_label
_atom_site_type_symbol
_atom_site_fract_x
_atom_site_fract_y
_atom_site_fract_z
Rb     Rb     0.00000000000000     0.00000000000000     0.25000000000000
Rb     Rb     0.50000000000000     0.50000000000000     0.75000000000000
Rb     Rb     0.00000000000000     0.00000000000000     0.75000000000000
Rb     Rb     0.50000000000000     0.50000000000000     0.25000000000000
Rb     Rb     0.34150000000000     0.84040000000000     0.68810000000000
Rb     Rb     0.84150000000000     0.34040000000000     0.18810000000000
Rb     Rb     0.84040000000000     0.34150000000000     0.81190000000000
Rb     Rb     0.34040000000000     0.84150000000000     0.31190000000000
Rb     Rb     0.84040000000000     0.65850000000000     0.31190000000000
Rb     Rb     0.34040000000000     0.15850000000000     0.81190000000000
Rb     Rb     0.34150000000000     0.15960000000000     0.18810000000000
Rb     Rb     0.84150000000000     0.65960000000000     0.68810000000000
Rb     Rb     0.65850000000000     0.15960000000000     0.68810000000000
Rb     Rb     0.15850000000000     0.65960000000000     0.18810000000000
Rb     Rb     0.15960000000000     0.65850000000000     0.81190000000000
Rb     Rb     0.65960000000000     0.15850000000000     0.31190000000000
Rb     Rb     0.15960000000000     0.34150000000000     0.31190000000000
Rb     Rb     0.65960000000000     0.84150000000000     0.81190000000000
Rb     Rb     0.65850000000000     0.84040000000000     0.18810000000000
Rb     Rb     0.15850000000000     0.34040000000000     0.68810000000000
Al     Al     0.50000000000000     0.00000000000000     0.00000000000000
Al     Al     0.00000000000000     0.50000000000000     0.50000000000000
Al     Al     0.00000000000000     0.50000000000000     0.00000000000000
Al     Al     0.50000000000000     0.00000000000000     0.50000000000000
Al     Al     0.79260000000000     0.07630000000000     0.00070000000000
Al     Al     0.29260000000000     0.57630000000000     0.50070000000000
Al     Al     0.07630000000000     0.79260000000000     0.49930000000000
Al     Al     0.57630000000000     0.29260000000000     0.99930000000000
Al     Al     0.07630000000000     0.20740000000000     0.99930000000000
Al     Al     0.57630000000000     0.70740000000000     0.49930000000000
Al     Al     0.79260000000000     0.92370000000000     0.50070000000000
Al     Al     0.29260000000000     0.42370000000000     0.00070000000000
Al     Al     0.20740000000000     0.92370000000000     0.00070000000000
Al     Al     0.70740000000000     0.42370000000000     0.50070000000000
Al     Al     0.92370000000000     0.20740000000000     0.49930000000000
Al     Al     0.42370000000000     0.70740000000000     0.99930000000000
Al     Al     0.92370000000000     0.79260000000000     0.99930000000000
Al     Al     0.42370000000000     0.29260000000000     0.49930000000000
Al     Al     0.20740000000000     0.07630000000000     0.50070000000000
Al     Al     0.70740000000000     0.57630000000000     0.00070000000000
F      F      0.34450000000000     0.00110000000000     0.00150000000000
F      F      0.84450000000000     0.50110000000000     0.50150000000000
F      F      0.00110000000000     0.34450000000000     0.49850000000000
F      F      0.50110000000000     0.84450000000000     0.99850000000000
F      F      0.00110000000000     0.65550000000000     0.99850000000000
F      F      0.50110000000000     0.15550000000000     0.49850000000000
F      F      0.34450000000000     0.99890000000000     0.50150000000000
F      F      0.84450000000000     0.49890000000000     0.00150000000000
F      F      0.65550000000000     0.99890000000000     0.00150000000000
F      F      0.15550000000000     0.49890000000000     0.50150000000000
F      F      0.99890000000000     0.65550000000000     0.49850000000000
F      F      0.49890000000000     0.15550000000000     0.99850000000000
F      F      0.99890000000000     0.34450000000000     0.99850000000000
F      F      0.49890000000000     0.84450000000000     0.49850000000000
F      F      0.65550000000000     0.00110000000000     0.50150000000000
F      F      0.15550000000000     0.50110000000000     0.00150000000000
F      F      0.14190000000000     0.06670000000000     0.00120000000000
F      F      0.64190000000000     0.56670000000000     0.50120000000000
F      F      0.06670000000000     0.14190000000000     0.49880000000000
F      F      0.56670000000000     0.64190000000000     0.99880000000000
F      F      0.06670000000000     0.85810000000000     0.99880000000000
F      F      0.56670000000000     0.35810000000000     0.49880000000000
F      F      0.14190000000000     0.93330000000000     0.50120000000000
F      F      0.64190000000000     0.43330000000000     0.00120000000000
F      F      0.85810000000000     0.93330000000000     0.00120000000000
F      F      0.35810000000000     0.43330000000000     0.50120000000000
F      F      0.93330000000000     0.85810000000000     0.49880000000000
F      F      0.43330000000000     0.35810000000000     0.99880000000000
F      F      0.93330000000000     0.14190000000000     0.99880000000000
F      F      0.43330000000000     0.64190000000000     0.49880000000000
F      F      0.85810000000000     0.06670000000000     0.50120000000000
F      F      0.35810000000000     0.56670000000000     0.00120000000000
F      F      0.07770000000000     0.20610000000000     0.13850000000000
F      F      0.57770000000000     0.70610000000000     0.63850000000000
F      F      0.20610000000000     0.07770000000000     0.36150000000000
F      F      0.70610000000000     0.57770000000000     0.86150000000000
F      F      0.20610000000000     0.92230000000000     0.86150000000000
F      F      0.70610000000000     0.42230000000000     0.36150000000000
F      F      0.07770000000000     0.79390000000000     0.63850000000000
F      F      0.57770000000000     0.29390000000000     0.13850000000000
F      F      0.92230000000000     0.79390000000000     0.13850000000000
F      F      0.42230000000000     0.29390000000000     0.63850000000000
F      F      0.79390000000000     0.92230000000000     0.36150000000000
F      F      0.29390000000000     0.42230000000000     0.86150000000000
F      F      0.79390000000000     0.07770000000000     0.86150000000000
F      F      0.29390000000000     0.57770000000000     0.36150000000000
F      F      0.92230000000000     0.20610000000000     0.63850000000000
F      F      0.42230000000000     0.70610000000000     0.13850000000000
F      F      0.91990000000000     0.78890000000000     0.86000000000000
F      F      0.41990000000000     0.28890000000000     0.36000000000000
F      F      0.78890000000000     0.91990000000000     0.64000000000000
F      F      0.28890000000000     0.41990000000000     0.14000000000000
F      F      0.78890000000000     0.08010000000000     0.14000000000000
F      F      0.28890000000000     0.58010000000000     0.64000000000000
F      F      0.91990000000000     0.21110000000000     0.36000000000000
F      F      0.41990000000000     0.71110000000000     0.86000000000000
F      F      0.08010000000000     0.21110000000000     0.86000000000000
F      F      0.58010000000000     0.71110000000000     0.36000000000000
F      F      0.21110000000000     0.08010000000000     0.64000000000000
F      F      0.71110000000000     0.58010000000000     0.14000000000000
F      F      0.21110000000000     0.91990000000000     0.14000000000000
F      F      0.71110000000000     0.41990000000000     0.64000000000000
F      F      0.08010000000000     0.78890000000000     0.36000000000000
F      F      0.58010000000000     0.28890000000000     0.86000000000000
F      F      0.21840000000000     0.71840000000000     0.50000000000000
F      F      0.71840000000000     0.21840000000000     0.00000000000000
F      F      0.71840000000000     0.78160000000000     0.50000000000000
F      F      0.21840000000000     0.28160000000000     0.00000000000000
F      F      0.78160000000000     0.28160000000000     0.50000000000000
F      F      0.28160000000000     0.78160000000000     0.00000000000000
F      F      0.28160000000000     0.21840000000000     0.50000000000000
F      F      0.78160000000000     0.71840000000000     0.00000000000000
F      F      0.00000000000000     0.50000000000000     0.13790000000000
F      F      0.50000000000000     0.00000000000000     0.63790000000000
F      F      0.50000000000000     0.00000000000000     0.36210000000000
F      F      0.00000000000000     0.50000000000000     0.86210000000000
F      F      0.50000000000000     0.00000000000000     0.86210000000000
F      F      0.00000000000000     0.50000000000000     0.36210000000000
F      F      0.00000000000000     0.50000000000000     0.63790000000000
F      F      0.50000000000000     0.00000000000000     0.13790000000000
