data_stdin
_audit_creation_method 'critic2-4f1eba8'
_cell_length_a         6.1180000000
_cell_length_b         6.1180000000
_cell_length_c         4.9960000000
_cell_angle_alpha        90.0000
_cell_angle_beta        90.0000
_cell_angle_gamma        90.0000
_cell_volume           186.999900
_space_group_crystal_system tetragonal
_space_group_IT_number 124
_space_group_name_H-M_alt 'P4/mcc'
_space_group_name_Hall '-P 4 2c'
loop_
_space_group_symop_operation_xyz
  'x,y,z'
  '-x,-y,-z'
  '-y,x,z'
  'y,-x,-z'
  '-x,-y,z'
  'x,y,-z'
  'y,-x,z'
  '-y,x,-z'
  'x,-y,-1/2-z'
  '-x,y,-1/2+z'
  '-y,-x,-1/2-z'
  'y,x,-1/2+z'
  '-x,y,-1/2-z'
  'x,-y,-1/2+z'
  'y,x,-1/2-z'
  '-y,-x,-1/2+z'
loop_
_atom_site_label
_atom_site_type_symbol
_atom_site_fract_x
_atom_site_fract_y
_atom_site_fract_z
P      P      0.50000000000000     0.50000000000000     0.25000000000000
Co     Co     0.00000000000000     0.00000000000000     0.25000000000000
Nb     Nb     0.16200000000000     0.66200000000000     0.00000000000000
