data_convert
_cell_volume          1027.335490
_symmetry_space_group_name_H-M 'P 1'
_symmetry_Int_Tables_number 1
loop_
_symmetry_equiv_pos_site_id
_symmetry_equiv_pos_as_xyz
1 x,y,z
_cell_length_a         7.0267000000
_cell_length_b         7.0267000000
_cell_length_c        20.8070000000
_cell_angle_alpha        90.0000
_cell_angle_beta        90.0000
_cell_angle_gamma        90.0000
_cell_formula_units_Z 1
loop_
_atom_site_label
_atom_site_type_symbol
_atom_site_fract_x
_atom_site_fract_y
_atom_site_fract_z
U      U      0.25000000000000     0.25000000000000     0.45840000000000
U      U      0.75000000000000     0.75000000000000     0.95840000000000
U      U      0.25000000000000     0.25000000000000     0.04160000000000
U      U      0.75000000000000     0.75000000000000     0.54160000000000
P      P      0.25000000000000     0.75000000000000     0.50000000000000
P      P      0.25000000000000     0.75000000000000     0.00000000000000
P      P      0.75000000000000     0.25000000000000     0.00000000000000
P      P      0.75000000000000     0.25000000000000     0.50000000000000
Cu     Cu     0.25000000000000     0.25000000000000     0.25000000000000
Cu     Cu     0.75000000000000     0.75000000000000     0.75000000000000
O      O      0.25000000000000     0.25000000000000     0.37280000000000
O      O      0.75000000000000     0.75000000000000     0.87280000000000
O      O      0.25000000000000     0.25000000000000     0.12720000000000
O      O      0.75000000000000     0.75000000000000     0.62720000000000
O      O      0.25000000000000     0.25000000000000     0.54290000000000
O      O      0.75000000000000     0.75000000000000     0.04290000000000
O      O      0.25000000000000     0.25000000000000     0.95710000000000
O      O      0.75000000000000     0.75000000000000     0.45710000000000
O      O      0.25000000000000     0.97780000000000     0.25000000000000
O      O      0.02220000000000     0.75000000000000     0.75000000000000
O      O      0.97780000000000     0.25000000000000     0.25000000000000
O      O      0.47780000000000     0.75000000000000     0.75000000000000
O      O      0.52220000000000     0.25000000000000     0.25000000000000
O      O      0.75000000000000     0.02220000000000     0.75000000000000
O      O      0.75000000000000     0.47780000000000     0.75000000000000
O      O      0.25000000000000     0.52220000000000     0.25000000000000
O      O      0.21940000000000     0.92380000000000     0.45650000000000
O      O      0.07620000000000     0.78060000000000     0.95650000000000
O      O      0.92380000000000     0.21940000000000     0.04350000000000
O      O      0.42380000000000     0.78060000000000     0.54350000000000
O      O      0.57620000000000     0.21940000000000     0.45650000000000
O      O      0.71940000000000     0.07620000000000     0.95650000000000
O      O      0.28060000000000     0.92380000000000     0.04350000000000
O      O      0.71940000000000     0.42380000000000     0.54350000000000
O      O      0.28060000000000     0.57620000000000     0.45650000000000
O      O      0.42380000000000     0.71940000000000     0.95650000000000
O      O      0.57620000000000     0.28060000000000     0.04350000000000
O      O      0.07620000000000     0.71940000000000     0.54350000000000
O      O      0.92380000000000     0.28060000000000     0.45650000000000
O      O      0.78060000000000     0.42380000000000     0.95650000000000
O      O      0.21940000000000     0.57620000000000     0.04350000000000
O      O      0.78060000000000     0.07620000000000     0.54350000000000
O      O      0.02050000000000     0.83330000000000     0.33910000000000
O      O      0.16670000000000     0.97950000000000     0.83910000000000
O      O      0.83330000000000     0.02050000000000     0.16090000000000
O      O      0.33330000000000     0.97950000000000     0.66090000000000
O      O      0.66670000000000     0.02050000000000     0.33910000000000
O      O      0.52050000000000     0.16670000000000     0.83910000000000
O      O      0.47950000000000     0.83330000000000     0.16090000000000
O      O      0.52050000000000     0.33330000000000     0.66090000000000
O      O      0.47950000000000     0.66670000000000     0.33910000000000
O      O      0.33330000000000     0.52050000000000     0.83910000000000
O      O      0.66670000000000     0.47950000000000     0.16090000000000
O      O      0.16670000000000     0.52050000000000     0.66090000000000
O      O      0.83330000000000     0.47950000000000     0.33910000000000
O      O      0.97950000000000     0.33330000000000     0.83910000000000
O      O      0.02050000000000     0.66670000000000     0.16090000000000
O      O      0.97950000000000     0.16670000000000     0.66090000000000
H      H      0.93300000000000     0.89700000000000     0.31300000000000
H      H      0.10300000000000     0.06700000000000     0.81300000000000
H      H      0.89700000000000     0.93300000000000     0.18700000000000
H      H      0.39700000000000     0.06700000000000     0.68700000000000
H      H      0.60300000000000     0.93300000000000     0.31300000000000
H      H      0.43300000000000     0.10300000000000     0.81300000000000
H      H      0.56700000000000     0.89700000000000     0.18700000000000
H      H      0.43300000000000     0.39700000000000     0.68700000000000
H      H      0.56700000000000     0.60300000000000     0.31300000000000
H      H      0.39700000000000     0.43300000000000     0.81300000000000
H      H      0.60300000000000     0.56700000000000     0.18700000000000
H      H      0.10300000000000     0.43300000000000     0.68700000000000
H      H      0.89700000000000     0.56700000000000     0.31300000000000
H      H      0.06700000000000     0.39700000000000     0.81300000000000
H      H      0.93300000000000     0.60300000000000     0.18700000000000
H      H      0.06700000000000     0.10300000000000     0.68700000000000
H      H      0.05400000000000     0.85700000000000     0.38100000000000
H      H      0.14300000000000     0.94600000000000     0.88100000000000
H      H      0.85700000000000     0.05400000000000     0.11900000000000
H      H      0.35700000000000     0.94600000000000     0.61900000000000
H      H      0.64300000000000     0.05400000000000     0.38100000000000
H      H      0.55400000000000     0.14300000000000     0.88100000000000
H      H      0.44600000000000     0.85700000000000     0.11900000000000
H      H      0.55400000000000     0.35700000000000     0.61900000000000
H      H      0.44600000000000     0.64300000000000     0.38100000000000
H      H      0.35700000000000     0.55400000000000     0.88100000000000
H      H      0.64300000000000     0.44600000000000     0.11900000000000
H      H      0.14300000000000     0.55400000000000     0.61900000000000
H      H      0.85700000000000     0.44600000000000     0.38100000000000
H      H      0.94600000000000     0.35700000000000     0.88100000000000
H      H      0.05400000000000     0.64300000000000     0.11900000000000
H      H      0.94600000000000     0.14300000000000     0.61900000000000
H      H      0.18500000000000     0.89300000000000     0.27800000000000
H      H      0.10700000000000     0.81500000000000     0.77800000000000
H      H      0.89300000000000     0.18500000000000     0.22200000000000
H      H      0.39300000000000     0.81500000000000     0.72200000000000
H      H      0.60700000000000     0.18500000000000     0.27800000000000
H      H      0.68500000000000     0.10700000000000     0.77800000000000
H      H      0.31500000000000     0.89300000000000     0.22200000000000
H      H      0.68500000000000     0.39300000000000     0.72200000000000
H      H      0.31500000000000     0.60700000000000     0.27800000000000
H      H      0.39300000000000     0.68500000000000     0.77800000000000
H      H      0.60700000000000     0.31500000000000     0.22200000000000
H      H      0.10700000000000     0.68500000000000     0.72200000000000
H      H      0.89300000000000     0.31500000000000     0.27800000000000
H      H      0.81500000000000     0.39300000000000     0.77800000000000
H      H      0.18500000000000     0.60700000000000     0.22200000000000
H      H      0.81500000000000     0.10700000000000     0.72200000000000
