data_convert
_cell_volume          1075.138557
_symmetry_space_group_name_H-M 'P 1'
_symmetry_Int_Tables_number 1
loop_
_symmetry_equiv_pos_site_id
_symmetry_equiv_pos_as_xyz
1 x,y,z
_cell_length_a         7.1797000000
_cell_length_b         7.1797000000
_cell_length_c        20.8570000000
_cell_angle_alpha        90.0000
_cell_angle_beta        90.0000
_cell_angle_gamma        90.0000
_cell_formula_units_Z 1
loop_
_atom_site_label
_atom_site_type_symbol
_atom_site_fract_x
_atom_site_fract_y
_atom_site_fract_z
U      U      0.50000000000000     0.50000000000000     0.70510000000000
U      U      0.00000000000000     0.00000000000000     0.20510000000000
U      U      0.50000000000000     0.50000000000000     0.29490000000000
U      U      0.00000000000000     0.00000000000000     0.79490000000000
As     As     0.50000000000000     0.00000000000000     0.75000000000000
As     As     0.50000000000000     0.00000000000000     0.25000000000000
As     As     0.00000000000000     0.50000000000000     0.25000000000000
As     As     0.00000000000000     0.50000000000000     0.75000000000000
Cu     Cu     0.50000000000000     0.50000000000000     0.50000000000000
Cu     Cu     0.00000000000000     0.00000000000000     0.00000000000000
O      O      0.50000000000000     0.50000000000000     0.61900000000000
O      O      0.00000000000000     0.00000000000000     0.11900000000000
O      O      0.50000000000000     0.50000000000000     0.38100000000000
O      O      0.00000000000000     0.00000000000000     0.88100000000000
O      O      0.50000000000000     0.50000000000000     0.79010000000000
O      O      0.00000000000000     0.00000000000000     0.29010000000000
O      O      0.50000000000000     0.50000000000000     0.20990000000000
O      O      0.00000000000000     0.00000000000000     0.70990000000000
O      O      0.50000000000000     0.23130000000000     0.50000000000000
O      O      0.26870000000000     0.00000000000000     0.00000000000000
O      O      0.23130000000000     0.50000000000000     0.50000000000000
O      O      0.73130000000000     0.00000000000000     0.00000000000000
O      O      0.76870000000000     0.50000000000000     0.50000000000000
O      O      0.00000000000000     0.26870000000000     0.00000000000000
O      O      0.00000000000000     0.73130000000000     0.00000000000000
O      O      0.50000000000000     0.76870000000000     0.50000000000000
O      O      0.45910000000000     0.18310000000000     0.70170000000000
O      O      0.31690000000000     0.04090000000000     0.20170000000000
O      O      0.18310000000000     0.45910000000000     0.29830000000000
O      O      0.68310000000000     0.04090000000000     0.79830000000000
O      O      0.81690000000000     0.45910000000000     0.70170000000000
O      O      0.95910000000000     0.31690000000000     0.20170000000000
O      O      0.54090000000000     0.18310000000000     0.29830000000000
O      O      0.95910000000000     0.68310000000000     0.79830000000000
O      O      0.54090000000000     0.81690000000000     0.70170000000000
O      O      0.68310000000000     0.95910000000000     0.20170000000000
O      O      0.81690000000000     0.54090000000000     0.29830000000000
O      O      0.31690000000000     0.95910000000000     0.79830000000000
O      O      0.18310000000000     0.54090000000000     0.70170000000000
O      O      0.04090000000000     0.68310000000000     0.20170000000000
O      O      0.45910000000000     0.81690000000000     0.29830000000000
O      O      0.04090000000000     0.31690000000000     0.79830000000000
O      O      0.26620000000000     0.08510000000000     0.58630000000000
O      O      0.41490000000000     0.23380000000000     0.08630000000000
O      O      0.08510000000000     0.26620000000000     0.41370000000000
O      O      0.58510000000000     0.23380000000000     0.91370000000000
O      O      0.91490000000000     0.26620000000000     0.58630000000000
O      O      0.76620000000000     0.41490000000000     0.08630000000000
O      O      0.73380000000000     0.08510000000000     0.41370000000000
O      O      0.76620000000000     0.58510000000000     0.91370000000000
O      O      0.73380000000000     0.91490000000000     0.58630000000000
O      O      0.58510000000000     0.76620000000000     0.08630000000000
O      O      0.91490000000000     0.73380000000000     0.41370000000000
O      O      0.41490000000000     0.76620000000000     0.91370000000000
O      O      0.08510000000000     0.73380000000000     0.58630000000000
O      O      0.23380000000000     0.58510000000000     0.08630000000000
O      O      0.26620000000000     0.91490000000000     0.41370000000000
O      O      0.23380000000000     0.41490000000000     0.91370000000000
H      H      0.15000000000000     0.14300000000000     0.58200000000000
H      H      0.35700000000000     0.35000000000000     0.08200000000000
H      H      0.14300000000000     0.15000000000000     0.41800000000000
H      H      0.64300000000000     0.35000000000000     0.91800000000000
H      H      0.85700000000000     0.15000000000000     0.58200000000000
H      H      0.65000000000000     0.35700000000000     0.08200000000000
H      H      0.85000000000000     0.14300000000000     0.41800000000000
H      H      0.65000000000000     0.64300000000000     0.91800000000000
H      H      0.85000000000000     0.85700000000000     0.58200000000000
H      H      0.64300000000000     0.65000000000000     0.08200000000000
H      H      0.85700000000000     0.85000000000000     0.41800000000000
H      H      0.35700000000000     0.65000000000000     0.91800000000000
H      H      0.14300000000000     0.85000000000000     0.58200000000000
H      H      0.35000000000000     0.64300000000000     0.08200000000000
H      H      0.15000000000000     0.85700000000000     0.41800000000000
H      H      0.35000000000000     0.35700000000000     0.91800000000000
H      H      0.34100000000000     0.10100000000000     0.62200000000000
H      H      0.39900000000000     0.15900000000000     0.12200000000000
H      H      0.10100000000000     0.34100000000000     0.37800000000000
H      H      0.60100000000000     0.15900000000000     0.87800000000000
H      H      0.89900000000000     0.34100000000000     0.62200000000000
H      H      0.84100000000000     0.39900000000000     0.12200000000000
H      H      0.65900000000000     0.10100000000000     0.37800000000000
H      H      0.84100000000000     0.60100000000000     0.87800000000000
H      H      0.65900000000000     0.89900000000000     0.62200000000000
H      H      0.60100000000000     0.84100000000000     0.12200000000000
H      H      0.89900000000000     0.65900000000000     0.37800000000000
H      H      0.39900000000000     0.84100000000000     0.87800000000000
H      H      0.10100000000000     0.65900000000000     0.62200000000000
H      H      0.15900000000000     0.60100000000000     0.12200000000000
H      H      0.34100000000000     0.89900000000000     0.37800000000000
H      H      0.15900000000000     0.39900000000000     0.87800000000000
H      H      0.43100000000000     0.15200000000000     0.52700000000000
H      H      0.34800000000000     0.06900000000000     0.02700000000000
H      H      0.15200000000000     0.43100000000000     0.47300000000000
H      H      0.65200000000000     0.06900000000000     0.97300000000000
H      H      0.84800000000000     0.43100000000000     0.52700000000000
H      H      0.93100000000000     0.34800000000000     0.02700000000000
H      H      0.56900000000000     0.15200000000000     0.47300000000000
H      H      0.93100000000000     0.65200000000000     0.97300000000000
H      H      0.56900000000000     0.84800000000000     0.52700000000000
H      H      0.65200000000000     0.93100000000000     0.02700000000000
H      H      0.84800000000000     0.56900000000000     0.47300000000000
H      H      0.34800000000000     0.93100000000000     0.97300000000000
H      H      0.15200000000000     0.56900000000000     0.52700000000000
H      H      0.06900000000000     0.65200000000000     0.02700000000000
H      H      0.43100000000000     0.84800000000000     0.47300000000000
H      H      0.06900000000000     0.34800000000000     0.97300000000000
