data_convert
_cell_volume           901.609151
_symmetry_space_group_name_H-M 'P 1'
_symmetry_Int_Tables_number 1
loop_
_symmetry_equiv_pos_site_id
_symmetry_equiv_pos_as_xyz
1 x,y,z
_cell_length_a         7.4950000000
_cell_length_b         7.4950000000
_cell_length_c        16.0500000000
_cell_angle_alpha        90.0000
_cell_angle_beta        90.0000
_cell_angle_gamma        90.0000
_cell_formula_units_Z 1
loop_
_atom_site_label
_atom_site_type_symbol
_atom_site_fract_x
_atom_site_fract_y
_atom_site_fract_z
Ba     Ba     0.00000000000000     0.00000000000000     0.00000000000000
Ba     Ba     0.50000000000000     0.50000000000000     0.50000000000000
Ba     Ba     0.00000000000000     0.00000000000000     0.50000000000000
Ba     Ba     0.50000000000000     0.50000000000000     0.00000000000000
Fe     Fe     0.00000000000000     0.50000000000000     0.09000000000000
Fe     Fe     0.00000000000000     0.50000000000000     0.59000000000000
Fe     Fe     0.50000000000000     0.00000000000000     0.41000000000000
Fe     Fe     0.50000000000000     0.00000000000000     0.91000000000000
Si     Si     0.27000000000000     0.17500000000000     0.15500000000000
Si     Si     0.32500000000000     0.23000000000000     0.65500000000000
Si     Si     0.17500000000000     0.27000000000000     0.34500000000000
Si     Si     0.17500000000000     0.73000000000000     0.84500000000000
Si     Si     0.32500000000000     0.77000000000000     0.15500000000000
Si     Si     0.27000000000000     0.82500000000000     0.65500000000000
Si     Si     0.23000000000000     0.67500000000000     0.34500000000000
Si     Si     0.77000000000000     0.67500000000000     0.84500000000000
Si     Si     0.73000000000000     0.82500000000000     0.15500000000000
Si     Si     0.67500000000000     0.77000000000000     0.65500000000000
Si     Si     0.82500000000000     0.73000000000000     0.34500000000000
Si     Si     0.82500000000000     0.27000000000000     0.84500000000000
Si     Si     0.67500000000000     0.23000000000000     0.15500000000000
Si     Si     0.73000000000000     0.17500000000000     0.65500000000000
Si     Si     0.77000000000000     0.32500000000000     0.34500000000000
Si     Si     0.23000000000000     0.32500000000000     0.84500000000000
O      O      0.21500000000000     0.21500000000000     0.25000000000000
O      O      0.28500000000000     0.28500000000000     0.75000000000000
O      O      0.21500000000000     0.78500000000000     0.75000000000000
O      O      0.28500000000000     0.71500000000000     0.25000000000000
O      O      0.71500000000000     0.71500000000000     0.75000000000000
O      O      0.78500000000000     0.78500000000000     0.25000000000000
O      O      0.78500000000000     0.21500000000000     0.75000000000000
O      O      0.71500000000000     0.28500000000000     0.25000000000000
O      O      0.46500000000000     0.24000000000000     0.14000000000000
O      O      0.26000000000000     0.03500000000000     0.64000000000000
O      O      0.24000000000000     0.46500000000000     0.36000000000000
O      O      0.24000000000000     0.53500000000000     0.86000000000000
O      O      0.26000000000000     0.96500000000000     0.14000000000000
O      O      0.46500000000000     0.76000000000000     0.64000000000000
O      O      0.03500000000000     0.74000000000000     0.36000000000000
O      O      0.96500000000000     0.74000000000000     0.86000000000000
O      O      0.53500000000000     0.76000000000000     0.14000000000000
O      O      0.74000000000000     0.96500000000000     0.64000000000000
O      O      0.76000000000000     0.53500000000000     0.36000000000000
O      O      0.76000000000000     0.46500000000000     0.86000000000000
O      O      0.74000000000000     0.03500000000000     0.14000000000000
O      O      0.53500000000000     0.24000000000000     0.64000000000000
O      O      0.96500000000000     0.26000000000000     0.36000000000000
O      O      0.03500000000000     0.26000000000000     0.86000000000000
O      O      0.13500000000000     0.27500000000000     0.09000000000000
O      O      0.22500000000000     0.36500000000000     0.59000000000000
O      O      0.27500000000000     0.13500000000000     0.41000000000000
O      O      0.27500000000000     0.86500000000000     0.91000000000000
O      O      0.22500000000000     0.63500000000000     0.09000000000000
O      O      0.13500000000000     0.72500000000000     0.59000000000000
O      O      0.36500000000000     0.77500000000000     0.41000000000000
O      O      0.63500000000000     0.77500000000000     0.91000000000000
O      O      0.86500000000000     0.72500000000000     0.09000000000000
O      O      0.77500000000000     0.63500000000000     0.59000000000000
O      O      0.72500000000000     0.86500000000000     0.41000000000000
O      O      0.72500000000000     0.13500000000000     0.91000000000000
O      O      0.77500000000000     0.36500000000000     0.09000000000000
O      O      0.86500000000000     0.27500000000000     0.59000000000000
O      O      0.63500000000000     0.22500000000000     0.41000000000000
O      O      0.36500000000000     0.22500000000000     0.91000000000000
