data_convert
_cell_volume           239.637890
_symmetry_space_group_name_H-M 'P 1'
_symmetry_Int_Tables_number 1
loop_
_symmetry_equiv_pos_site_id
_symmetry_equiv_pos_as_xyz
1 x,y,z
_cell_length_a         4.9949000000
_cell_length_b         4.9949000000
_cell_length_c         9.6051000000
_cell_angle_alpha        90.0000
_cell_angle_beta        90.0000
_cell_angle_gamma        90.0000
_cell_formula_units_Z 1
loop_
_atom_site_label
_atom_site_type_symbol
_atom_site_fract_x
_atom_site_fract_y
_atom_site_fract_z
F      F      0.73300000000000     0.73300000000000     0.00000000000000
F      F      0.26700000000000     0.73300000000000     0.50000000000000
F      F      0.26700000000000     0.26700000000000     0.00000000000000
F      F      0.73300000000000     0.26700000000000     0.50000000000000
F      F      0.81200000000000     0.18800000000000     0.13500000000000
F      F      0.81200000000000     0.81200000000000     0.63500000000000
F      F      0.18800000000000     0.81200000000000     0.13500000000000
F      F      0.18800000000000     0.18800000000000     0.63500000000000
F      F      0.81200000000000     0.81200000000000     0.36500000000000
F      F      0.18800000000000     0.81200000000000     0.86500000000000
F      F      0.18800000000000     0.18800000000000     0.36500000000000
F      F      0.81200000000000     0.18800000000000     0.86500000000000
Ta     Ta     0.00000000000000     0.00000000000000     0.00000000000000
Ta     Ta     0.00000000000000     0.00000000000000     0.50000000000000
Ag     Ag     0.50000000000000     0.50000000000000     0.25000000000000
Ag     Ag     0.50000000000000     0.50000000000000     0.75000000000000
