data_convert
_cell_volume           997.049022
_symmetry_space_group_name_H-M 'P 1'
_symmetry_Int_Tables_number 1
loop_
_symmetry_equiv_pos_site_id
_symmetry_equiv_pos_as_xyz
1 x,y,z
_cell_length_a         8.7610000000
_cell_length_b         8.7610000000
_cell_length_c        12.9900000000
_cell_angle_alpha        90.0000
_cell_angle_beta        90.0000
_cell_angle_gamma        90.0000
_cell_formula_units_Z 1
loop_
_atom_site_label
_atom_site_type_symbol
_atom_site_fract_x
_atom_site_fract_y
_atom_site_fract_z
Mn     Mn     0.50000000000000     0.00000000000000     0.25000000000000
Mn     Mn     0.00000000000000     0.50000000000000     0.75000000000000
Mn     Mn     0.50000000000000     0.00000000000000     0.75000000000000
Mn     Mn     0.00000000000000     0.50000000000000     0.25000000000000
Mn     Mn     0.50000000000000     0.00000000000000     0.50000000000000
Mn     Mn     0.00000000000000     0.50000000000000     0.00000000000000
Mn     Mn     0.00000000000000     0.50000000000000     0.50000000000000
Mn     Mn     0.50000000000000     0.00000000000000     0.00000000000000
Te     Te     0.28844000000000     0.31294000000000     0.63240000000000
Te     Te     0.68706000000000     0.71156000000000     0.13240000000000
Te     Te     0.81294000000000     0.78844000000000     0.36760000000000
Te     Te     0.31294000000000     0.71156000000000     0.36760000000000
Te     Te     0.18706000000000     0.78844000000000     0.13240000000000
Te     Te     0.78844000000000     0.18706000000000     0.63240000000000
Te     Te     0.71156000000000     0.31294000000000     0.86760000000000
Te     Te     0.78844000000000     0.81294000000000     0.86760000000000
Te     Te     0.71156000000000     0.68706000000000     0.63240000000000
Te     Te     0.31294000000000     0.28844000000000     0.13240000000000
Te     Te     0.18706000000000     0.21156000000000     0.36760000000000
Te     Te     0.68706000000000     0.28844000000000     0.36760000000000
Te     Te     0.81294000000000     0.21156000000000     0.13240000000000
Te     Te     0.21156000000000     0.81294000000000     0.63240000000000
Te     Te     0.28844000000000     0.68706000000000     0.86760000000000
Te     Te     0.21156000000000     0.18706000000000     0.86760000000000
O      O      0.41980000000000     0.85050000000000     0.61550000000000
O      O      0.14950000000000     0.58020000000000     0.11550000000000
O      O      0.35050000000000     0.91980000000000     0.38450000000000
O      O      0.85050000000000     0.58020000000000     0.38450000000000
O      O      0.64950000000000     0.91980000000000     0.11550000000000
O      O      0.91980000000000     0.64950000000000     0.61550000000000
O      O      0.58020000000000     0.85050000000000     0.88450000000000
O      O      0.91980000000000     0.35050000000000     0.88450000000000
O      O      0.58020000000000     0.14950000000000     0.61550000000000
O      O      0.85050000000000     0.41980000000000     0.11550000000000
O      O      0.64950000000000     0.08020000000000     0.38450000000000
O      O      0.14950000000000     0.41980000000000     0.38450000000000
O      O      0.35050000000000     0.08020000000000     0.11550000000000
O      O      0.08020000000000     0.35050000000000     0.61550000000000
O      O      0.41980000000000     0.14950000000000     0.88450000000000
O      O      0.08020000000000     0.64950000000000     0.88450000000000
O      O      0.27430000000000     0.12490000000000     0.70110000000000
O      O      0.87510000000000     0.72570000000000     0.20110000000000
O      O      0.62490000000000     0.77430000000000     0.29890000000000
O      O      0.12490000000000     0.72570000000000     0.29890000000000
O      O      0.37510000000000     0.77430000000000     0.20110000000000
O      O      0.77430000000000     0.37510000000000     0.70110000000000
O      O      0.72570000000000     0.12490000000000     0.79890000000000
O      O      0.77430000000000     0.62490000000000     0.79890000000000
O      O      0.72570000000000     0.87510000000000     0.70110000000000
O      O      0.12490000000000     0.27430000000000     0.20110000000000
O      O      0.37510000000000     0.22570000000000     0.29890000000000
O      O      0.87510000000000     0.27430000000000     0.29890000000000
O      O      0.62490000000000     0.22570000000000     0.20110000000000
O      O      0.22570000000000     0.62490000000000     0.70110000000000
O      O      0.27430000000000     0.87510000000000     0.79890000000000
O      O      0.22570000000000     0.37510000000000     0.79890000000000
O      O      0.80360000000000     0.30360000000000     0.50000000000000
O      O      0.69640000000000     0.19640000000000     0.00000000000000
O      O      0.30360000000000     0.19640000000000     0.50000000000000
O      O      0.19640000000000     0.30360000000000     0.00000000000000
O      O      0.30360000000000     0.80360000000000     0.00000000000000
O      O      0.19640000000000     0.69640000000000     0.50000000000000
O      O      0.69640000000000     0.80360000000000     0.50000000000000
O      O      0.80360000000000     0.69640000000000     0.00000000000000
