data_convert
_cell_volume           509.510111
_symmetry_space_group_name_H-M 'P 1'
_symmetry_Int_Tables_number 1
loop_
_symmetry_equiv_pos_site_id
_symmetry_equiv_pos_as_xyz
1 x,y,z
_cell_length_a         8.8110000000
_cell_length_b         8.8110000000
_cell_length_c         6.5630000000
_cell_angle_alpha        90.0000
_cell_angle_beta        90.0000
_cell_angle_gamma        90.0000
_cell_formula_units_Z 1
loop_
_atom_site_label
_atom_site_type_symbol
_atom_site_fract_x
_atom_site_fract_y
_atom_site_fract_z
Pb     Pb     0.00000000000000     0.50000000000000     0.25000000000000
Pb     Pb     0.00000000000000     0.50000000000000     0.75000000000000
Pb     Pb     0.50000000000000     0.00000000000000     0.25000000000000
Pb     Pb     0.50000000000000     0.00000000000000     0.75000000000000
Pb     Pb     0.14000000000000     0.16300000000000     0.00000000000000
Pb     Pb     0.33700000000000     0.36000000000000     0.50000000000000
Pb     Pb     0.66300000000000     0.64000000000000     0.50000000000000
Pb     Pb     0.16300000000000     0.86000000000000     0.50000000000000
Pb     Pb     0.83700000000000     0.14000000000000     0.50000000000000
Pb     Pb     0.64000000000000     0.33700000000000     0.00000000000000
Pb     Pb     0.36000000000000     0.66300000000000     0.00000000000000
Pb     Pb     0.86000000000000     0.83700000000000     0.00000000000000
O      O      0.67100000000000     0.17100000000000     0.25000000000000
O      O      0.32900000000000     0.82900000000000     0.75000000000000
O      O      0.17100000000000     0.32900000000000     0.25000000000000
O      O      0.82900000000000     0.67100000000000     0.75000000000000
O      O      0.67100000000000     0.17100000000000     0.75000000000000
O      O      0.32900000000000     0.82900000000000     0.25000000000000
O      O      0.82900000000000     0.67100000000000     0.25000000000000
O      O      0.17100000000000     0.32900000000000     0.75000000000000
O      O      0.09600000000000     0.63700000000000     0.00000000000000
O      O      0.86300000000000     0.40400000000000     0.50000000000000
O      O      0.13700000000000     0.59600000000000     0.50000000000000
O      O      0.63700000000000     0.90400000000000     0.50000000000000
O      O      0.36300000000000     0.09600000000000     0.50000000000000
O      O      0.59600000000000     0.86300000000000     0.00000000000000
O      O      0.40400000000000     0.13700000000000     0.00000000000000
O      O      0.90400000000000     0.36300000000000     0.00000000000000
