data_convert
_cell_volume           274.264691
_symmetry_space_group_name_H-M 'P 1'
_symmetry_Int_Tables_number 1
loop_
_symmetry_equiv_pos_site_id
_symmetry_equiv_pos_as_xyz
1 x,y,z
_cell_length_a         6.8380000000
_cell_length_b         6.8380000000
_cell_length_c         6.7730000000
_cell_angle_alpha        90.0000
_cell_angle_beta        90.0000
_cell_angle_gamma       120.0000
_cell_formula_units_Z 1
loop_
_atom_site_label
_atom_site_type_symbol
_atom_site_fract_x
_atom_site_fract_y
_atom_site_fract_z
La     La     0.59784000000000     0.00000000000000     0.00000000000000
La     La     0.00000000000000     0.59784000000000     0.33333333333333
La     La     0.40216000000000     0.40216000000000     0.66666666666667
B      B      0.11100000000000     0.00100000000000     0.00000000000000
B      B      0.99900000000000     0.11000000000000     0.33333333333333
B      B      0.89000000000000     0.88900000000000     0.66666666666667
Si     Si     0.58250000000000     0.00000000000000     0.49900000000000
Si     Si     0.00000000000000     0.58250000000000     0.83233333333333
Si     Si     0.41750000000000     0.41750000000000     0.16566666666667
O      O      0.34300000000000     0.19100000000000     0.02700000000000
O      O      0.80900000000000     0.15200000000000     0.36033333333333
O      O      0.84800000000000     0.65700000000000     0.69366666666667
O      O      0.19100000000000     0.34300000000000     0.30700000000000
O      O      0.65700000000000     0.84800000000000     0.64033333333333
O      O      0.15200000000000     0.80900000000000     0.97366666666667
O      O      0.60300000000000     0.46600000000000     0.33000000000000
O      O      0.53400000000000     0.13700000000000     0.66333333333333
O      O      0.86300000000000     0.39700000000000     0.99666666666667
O      O      0.46600000000000     0.60300000000000     0.00200000000000
O      O      0.39700000000000     0.86300000000000     0.33533333333333
O      O      0.13700000000000     0.53400000000000     0.66866666666667
O      O      0.00000000000000     0.03700000000000     0.83300000000000
O      O      0.96300000000000     0.96300000000000     0.16633333333333
O      O      0.03700000000000     0.00000000000000     0.49966666666667
