data_convert
_cell_volume           410.982989
_symmetry_space_group_name_H-M 'P 1'
_symmetry_Int_Tables_number 1
loop_
_symmetry_equiv_pos_site_id
_symmetry_equiv_pos_as_xyz
1 x,y,z
_cell_length_a         7.0453000000
_cell_length_b         7.0453000000
_cell_length_c         9.5608000000
_cell_angle_alpha        90.0000
_cell_angle_beta        90.0000
_cell_angle_gamma       120.0000
_cell_formula_units_Z 1
loop_
_atom_site_label
_atom_site_type_symbol
_atom_site_fract_x
_atom_site_fract_y
_atom_site_fract_z
B      B      0.18370000000000     0.64030000000000     0.28490000000000
B      B      0.35970000000000     0.54340000000000     0.95156666666667
B      B      0.45660000000000     0.81630000000000     0.61823333333333
B      B      0.51800000000000     0.30690000000000     0.29640000000000
B      B      0.69310000000000     0.21110000000000     0.96306666666667
B      B      0.78890000000000     0.48200000000000     0.62973333333333
O      O      0.06210000000000     0.73930000000000     0.28050000000000
O      O      0.26070000000000     0.32280000000000     0.94716666666667
O      O      0.67720000000000     0.93790000000000     0.61383333333333
O      O      0.08640000000000     0.41950000000000     0.28080000000000
O      O      0.58050000000000     0.66690000000000     0.94746666666667
O      O      0.33310000000000     0.91360000000000     0.61413333333333
O      O      0.40900000000000     0.76500000000000     0.28690000000000
O      O      0.23500000000000     0.64400000000000     0.95356666666667
O      O      0.35600000000000     0.59100000000000     0.62023333333333
O      O      0.64370000000000     0.21030000000000     0.29290000000000
O      O      0.78970000000000     0.43340000000000     0.95956666666667
O      O      0.56660000000000     0.35630000000000     0.62623333333333
O      O      0.29500000000000     0.18320000000000     0.29980000000000
O      O      0.81680000000000     0.11180000000000     0.96646666666667
O      O      0.88820000000000     0.70500000000000     0.63313333333333
O      O      0.61360000000000     0.52940000000000     0.29040000000000
O      O      0.47060000000000     0.08420000000000     0.95706666666667
O      O      0.91580000000000     0.38640000000000     0.62373333333333
H      H      0.13300000000000     0.87700000000000     0.31600000000000
H      H      0.12300000000000     0.25600000000000     0.98266666666667
H      H      0.74400000000000     0.86700000000000     0.64933333333333
H      H      0.94300000000000     0.36100000000000     0.31100000000000
H      H      0.63900000000000     0.58200000000000     0.97766666666667
H      H      0.41800000000000     0.05700000000000     0.64433333333333
H      H      0.48300000000000     0.69500000000000     0.31100000000000
H      H      0.30500000000000     0.78800000000000     0.97766666666667
H      H      0.21200000000000     0.51700000000000     0.64433333333333
H      H      0.56500000000000     0.07700000000000     0.33300000000000
H      H      0.92300000000000     0.48800000000000     0.99966666666667
H      H      0.51200000000000     0.43500000000000     0.66633333333333
H      H      0.24300000000000     0.27400000000000     0.32400000000000
H      H      0.72600000000000     0.96900000000000     0.99066666666667
H      H      0.03100000000000     0.75700000000000     0.65733333333333
H      H      0.75500000000000     0.60200000000000     0.31800000000000
H      H      0.39800000000000     0.15300000000000     0.98466666666667
H      H      0.84700000000000     0.24500000000000     0.65133333333333
