data_convert
_cell_volume           478.072661
_symmetry_space_group_name_H-M 'P 1'
_symmetry_Int_Tables_number 1
loop_
_symmetry_equiv_pos_site_id
_symmetry_equiv_pos_as_xyz
1 x,y,z
_cell_length_a         8.3741600441
_cell_length_b         8.3741600441
_cell_length_c         8.3741600441
_cell_angle_alpha       107.7945
_cell_angle_beta       107.7945
_cell_angle_gamma       107.7945
_cell_formula_units_Z 1
loop_
_atom_site_label
_atom_site_type_symbol
_atom_site_fract_x
_atom_site_fract_y
_atom_site_fract_z
Li     Li     0.23420000000000     0.45750000000000     0.06250000000000
Li     Li     0.06250000000000     0.23420000000000     0.45750000000000
Li     Li     0.45750000000000     0.06250000000000     0.23420000000000
Li     Li     0.77430000000000     0.54440000000000     0.94180000000000
Li     Li     0.94180000000000     0.77430000000000     0.54440000000000
Li     Li     0.54440000000000     0.94180000000000     0.77430000000000
Si     Si     0.27979000000000     0.09951000000000     0.86998000000000
Si     Si     0.86998000000000     0.27979000000000     0.09951000000000
Si     Si     0.09951000000000     0.86998000000000     0.27979000000000
Al     Al     0.72055000000000     0.89961000000000     0.13248000000000
Al     Al     0.13248000000000     0.72055000000000     0.89961000000000
Al     Al     0.89961000000000     0.13248000000000     0.72055000000000
Si     Si     0.79185000000000     0.38487000000000     0.57212000000000
Si     Si     0.57212000000000     0.79185000000000     0.38487000000000
Si     Si     0.38487000000000     0.57212000000000     0.79185000000000
Al     Al     0.20912000000000     0.61453000000000     0.42895000000000
Al     Al     0.42895000000000     0.20912000000000     0.61453000000000
Al     Al     0.61453000000000     0.42895000000000     0.20912000000000
O      O      0.35672000000000     0.65255000000000     0.31950000000000
O      O      0.31950000000000     0.35672000000000     0.65255000000000
O      O      0.65255000000000     0.31950000000000     0.35672000000000
O      O      0.66395000000000     0.34903000000000     0.68225000000000
O      O      0.68225000000000     0.66395000000000     0.34903000000000
O      O      0.34903000000000     0.68225000000000     0.66395000000000
O      O      0.67391000000000     0.94039000000000     0.60583000000000
O      O      0.60583000000000     0.67391000000000     0.94039000000000
O      O      0.94039000000000     0.60583000000000     0.67391000000000
O      O      0.30890000000000     0.04326000000000     0.37716000000000
O      O      0.37716000000000     0.30890000000000     0.04326000000000
O      O      0.04326000000000     0.37716000000000     0.30890000000000
O      O      0.95860000000000     0.27958000000000     0.95106000000000
O      O      0.95106000000000     0.95860000000000     0.27958000000000
O      O      0.27958000000000     0.95106000000000     0.95860000000000
O      O      0.04263000000000     0.73057000000000     0.06570000000000
O      O      0.06570000000000     0.04263000000000     0.73057000000000
O      O      0.73057000000000     0.06570000000000     0.04263000000000
O      O      0.58675000000000     0.90665000000000     0.25963000000000
O      O      0.25963000000000     0.58675000000000     0.90665000000000
O      O      0.90665000000000     0.25963000000000     0.58675000000000
O      O      0.40440000000000     0.09150000000000     0.75356000000000
O      O      0.75356000000000     0.40440000000000     0.09150000000000
O      O      0.09150000000000     0.75356000000000     0.40440000000000
