data_stdin
_cell_volume           315.838732
_symmetry_space_group_name_H-M 'P 1'
_symmetry_Int_Tables_number 1
loop_
_symmetry_equiv_pos_site_id
_symmetry_equiv_pos_as_xyz
1 x,y,z
_cell_length_a         5.0884000000
_cell_length_b         5.0884000000
_cell_length_c        14.0855000000
_cell_angle_alpha        90.0000
_cell_angle_beta        90.0000
_cell_angle_gamma       120.0000
_cell_formula_units_Z 1
loop_
_atom_site_label
_atom_site_type_symbol
_atom_site_fract_x
_atom_site_fract_y
_atom_site_fract_z
Fe     Fe     0.00000000000000     0.00000000000000     0.35537000000000
Fe     Fe     0.66666666666667     0.33333333333333     0.68870333333333
Fe     Fe     0.33333333333333     0.66666666666667     0.02203666666667
Fe     Fe     0.00000000000000     0.00000000000000     0.64463000000000
Fe     Fe     0.66666666666667     0.33333333333333     0.97796333333333
Fe     Fe     0.33333333333333     0.66666666666667     0.31129666666667
Ti     Ti     0.00000000000000     0.00000000000000     0.14640000000000
Ti     Ti     0.66666666666667     0.33333333333333     0.47973333333333
Ti     Ti     0.33333333333333     0.66666666666667     0.81306666666667
Ti     Ti     0.00000000000000     0.00000000000000     0.85360000000000
Ti     Ti     0.66666666666667     0.33333333333333     0.18693333333333
Ti     Ti     0.33333333333333     0.66666666666667     0.52026666666667
O      O      0.31743000000000     0.02332000000000     0.24506000000000
O      O      0.98409666666667     0.35665333333333     0.57839333333333
O      O      0.65076333333333     0.68998666666667     0.91172666666667
O      O      0.02332000000000     0.70589000000000     0.75494000000000
O      O      0.68998666666667     0.03922333333333     0.08827333333333
O      O      0.35665333333333     0.37255666666667     0.42160666666667
O      O      0.70589000000000     0.68257000000000     0.24506000000000
O      O      0.37255666666667     0.01590333333333     0.57839333333333
O      O      0.03922333333333     0.34923666666667     0.91172666666667
O      O      0.68257000000000     0.97668000000000     0.75494000000000
O      O      0.34923666666667     0.31001333333333     0.08827333333333
O      O      0.01590333333333     0.64334666666667     0.42160666666667
O      O      0.97668000000000     0.29411000000000     0.24506000000000
O      O      0.64334666666667     0.62744333333333     0.57839333333333
O      O      0.31001333333333     0.96077666666667     0.91172666666667
O      O      0.29411000000000     0.31743000000000     0.75494000000000
O      O      0.96077666666667     0.65076333333333     0.08827333333333
O      O      0.62744333333333     0.98409666666667     0.42160666666667
