data_convert
_cell_volume           120.091764
_symmetry_space_group_name_H-M 'P 1'
_symmetry_Int_Tables_number 1
loop_
_symmetry_equiv_pos_site_id
_symmetry_equiv_pos_as_xyz
1 x,y,z
_cell_length_a         5.0656600000
_cell_length_b         5.0656600000
_cell_length_c         5.4039400000
_cell_angle_alpha        90.0000
_cell_angle_beta        90.0000
_cell_angle_gamma       120.0000
_cell_formula_units_Z 1
loop_
_atom_site_label
_atom_site_type_symbol
_atom_site_fract_x
_atom_site_fract_y
_atom_site_fract_z
Sr     Sr     0.00000000000000     0.00000000000000     0.00000000000000
O      O      0.38000000000000     0.00500000000000     0.31110000000000
O      O      0.99500000000000     0.37500000000000     0.31110000000000
O      O      0.62500000000000     0.62000000000000     0.31110000000000
O      O      0.99500000000000     0.62000000000000     0.68890000000000
O      O      0.38000000000000     0.37500000000000     0.68890000000000
O      O      0.62500000000000     0.00500000000000     0.68890000000000
Ge     Ge     0.66666667000000     0.33333333000000     0.50000000000000
Te     Te     0.33333333000000     0.66666667000000     0.50000000000000
