data_convert
_cell_volume           342.419271
_symmetry_space_group_name_H-M 'P 1'
_symmetry_Int_Tables_number 1
loop_
_symmetry_equiv_pos_site_id
_symmetry_equiv_pos_as_xyz
1 x,y,z
_cell_length_a         8.8590000000
_cell_length_b         8.8590000000
_cell_length_c         5.0380000000
_cell_angle_alpha        90.0000
_cell_angle_beta        90.0000
_cell_angle_gamma       120.0000
_cell_formula_units_Z 1
loop_
_atom_site_label
_atom_site_type_symbol
_atom_site_fract_x
_atom_site_fract_y
_atom_site_fract_z
Na     Na     0.37900000000000     0.37900000000000     0.00000000000000
Na     Na     0.62100000000000     0.00000000000000     0.00000000000000
Na     Na     0.00000000000000     0.62100000000000     0.00000000000000
Na     Na     0.71430000000000     0.71430000000000     0.50000000000000
Na     Na     0.28570000000000     0.00000000000000     0.50000000000000
Na     Na     0.00000000000000     0.28570000000000     0.50000000000000
Si     Si     0.00000000000000     0.00000000000000     0.00000000000000
Si     Si     0.33333333000000     0.66666667000000     0.50620000000000
Si     Si     0.66666667000000     0.33333333000000     0.49380000000000
F      F      0.08700000000000     0.90800000000000     0.80990000000000
F      F      0.90800000000000     0.08700000000000     0.19010000000000
F      F      0.09200000000000     0.17900000000000     0.80990000000000
F      F      0.91300000000000     0.82100000000000     0.19010000000000
F      F      0.82100000000000     0.91300000000000     0.80990000000000
F      F      0.17900000000000     0.09200000000000     0.19010000000000
F      F      0.44420000000000     0.59900000000000     0.70070000000000
F      F      0.59900000000000     0.44420000000000     0.29930000000000
F      F      0.40100000000000     0.84520000000000     0.70070000000000
F      F      0.55580000000000     0.15480000000000     0.29930000000000
F      F      0.15480000000000     0.55580000000000     0.70070000000000
F      F      0.84520000000000     0.40100000000000     0.29930000000000
F      F      0.22990000000000     0.74000000000000     0.30980000000000
F      F      0.74000000000000     0.22990000000000     0.69020000000000
F      F      0.26000000000000     0.48990000000000     0.30980000000000
F      F      0.77010000000000     0.51010000000000     0.69020000000000
F      F      0.51010000000000     0.77010000000000     0.30980000000000
F      F      0.48990000000000     0.26000000000000     0.69020000000000
