data_stdin
_audit_creation_method 'critic2-4f1eba8'
_cell_length_a         6.3280000000
_cell_length_b         6.3280000000
_cell_length_c         6.1700000000
_cell_angle_alpha        90.0000
_cell_angle_beta        90.0000
_cell_angle_gamma       120.0000
_cell_volume           213.967955
_space_group_crystal_system trigonal
_space_group_IT_number 151
_space_group_name_H-M_alt 'P3_112'
_space_group_name_Hall 'P 31 2c (0 0 1)'
loop_
_space_group_symop_operation_xyz
  'x,y,z'
  '-y,x-y,-2/3+z'
  '-x+y,-x,-1/3+z'
  '-y,-x,-1/3-z'
  '-x+y,y,-2/3-z'
  'x,x-y,-z'
loop_
_atom_site_label
_atom_site_type_symbol
_atom_site_fract_x
_atom_site_fract_y
_atom_site_fract_z
Sn     Sn     0.90280000000000     0.09720000000000     0.83330000000000
Ga     Ga     0.43050000000000     0.56950000000000     0.33330000000000
Na     Na     0.58640000000000     0.41360000000000     0.83330000000000
