data_convert
_cell_volume            81.782205
_symmetry_space_group_name_H-M 'P 1'
_symmetry_Int_Tables_number 1
loop_
_symmetry_equiv_pos_site_id
_symmetry_equiv_pos_as_xyz
1 x,y,z
_cell_length_a         4.3662000000
_cell_length_b         4.3662000000
_cell_length_c         4.9536000000
_cell_angle_alpha        90.0000
_cell_angle_beta        90.0000
_cell_angle_gamma       120.0000
_cell_formula_units_Z 1
loop_
_atom_site_label
_atom_site_type_symbol
_atom_site_fract_x
_atom_site_fract_y
_atom_site_fract_z
Se     Se     0.22540000000000     0.00000000000000     0.33333333300000
Se     Se     0.00000000000000     0.22540000000000     0.66666666700000
Se     Se     0.77460000000000     0.77460000000000     0.00000000033333
