data_stdin
_audit_creation_method 'critic2-4f1eba8'
_cell_length_a         6.0170000000
_cell_length_b         6.0170000000
_cell_length_c        17.3000000000
_cell_angle_alpha        90.0000
_cell_angle_beta        90.0000
_cell_angle_gamma       120.0000
_cell_volume           542.421328
_space_group_crystal_system trigonal
_space_group_IT_number 153
_space_group_name_H-M_alt 'P3_212'
_space_group_name_Hall 'P 32 2c (0 0 -1)'
loop_
_space_group_symop_operation_xyz
  'x,y,z'
  '-y,x-y,-1/3+z'
  '-x+y,-x,-2/3+z'
  '-y,-x,-2/3-z'
  '-x+y,y,-1/3-z'
  'x,x-y,-z'
loop_
_atom_site_label
_atom_site_type_symbol
_atom_site_fract_x
_atom_site_fract_y
_atom_site_fract_z
Cr     Cr     0.22222222000000     0.11111110000000     0.00000000000000
Cr     Cr     0.88888889000000     0.44444440000000     0.00000000000000
Cl     Cl     0.88888889000000     0.11111110000000     0.07310000000000
Cl     Cl     0.55555560000000     0.44444440000000     0.07310000000000
Cl     Cl     0.22222220000000     0.77777780000000     0.07310000000000
