data_convert
_cell_volume            86.890712
_symmetry_space_group_name_H-M 'P 1'
_symmetry_Int_Tables_number 1
loop_
_symmetry_equiv_pos_site_id
_symmetry_equiv_pos_as_xyz
1 x,y,z
_cell_length_a         5.0290000000
_cell_length_b         5.0290000000
_cell_length_c         5.0290000000
_cell_angle_alpha        58.5200
_cell_angle_beta        58.5200
_cell_angle_gamma        58.5200
_cell_formula_units_Z 1
loop_
_atom_site_label
_atom_site_type_symbol
_atom_site_fract_x
_atom_site_fract_y
_atom_site_fract_z
Al     Al     0.23700000000000     0.23700000000000     0.23700000000000
Al     Al     0.76300000000000     0.76300000000000     0.76300000000000
F      F      0.43000000000000     0.57000000000000     0.00000000000000
F      F      0.57000000000000     0.00000000000000     0.43000000000000
F      F      0.00000000000000     0.43000000000000     0.57000000000000
F      F      0.07000000000000     0.93000000000000     0.50000000000000
F      F      0.93000000000000     0.50000000000000     0.07000000000000
F      F      0.50000000000000     0.07000000000000     0.93000000000000
