data_convert
_cell_volume           376.533084
_symmetry_space_group_name_H-M 'P 1'
_symmetry_Int_Tables_number 1
loop_
_symmetry_equiv_pos_site_id
_symmetry_equiv_pos_as_xyz
1 x,y,z
_cell_length_a         4.5570000000
_cell_length_b         4.5570000000
_cell_length_c        20.9370000000
_cell_angle_alpha        90.0000
_cell_angle_beta        90.0000
_cell_angle_gamma       120.0000
_cell_formula_units_Z 1
loop_
_atom_site_label
_atom_site_type_symbol
_atom_site_fract_x
_atom_site_fract_y
_atom_site_fract_z
Pb     Pb     0.00000000000000     0.00000000000000     0.00000000000000
Pb     Pb     0.00000000000000     0.00000000000000     0.33333333000000
Pb     Pb     0.66666667000000     0.33333333000000     0.66666667000000
I      I      0.00000000000000     0.00000000000000     0.57900000000000
I      I      0.33333333000000     0.66666667000000     0.08800000000000
I      I      0.66666667000000     0.33333333000000     0.91200000000000
I      I      0.33333333000000     0.66666667000000     0.75500000000000
I      I      0.66666667000000     0.33333333000000     0.24500000000000
I      I      0.33333333000000     0.66666667000000     0.42100000000000
