data_convert
_cell_volume           343.873391
_symmetry_space_group_name_H-M 'P 1'
_symmetry_Int_Tables_number 1
loop_
_symmetry_equiv_pos_site_id
_symmetry_equiv_pos_as_xyz
1 x,y,z
_cell_length_a         5.2617000000
_cell_length_b         5.2617000000
_cell_length_c        14.3422000000
_cell_angle_alpha        90.0000
_cell_angle_beta        90.0000
_cell_angle_gamma       120.0000
_cell_formula_units_Z 1
loop_
_atom_site_label
_atom_site_type_symbol
_atom_site_fract_x
_atom_site_fract_y
_atom_site_fract_z
Nb     Nb     0.00000000000000     0.00000000000000     0.35910000000000
Nb     Nb     0.00000000000000     0.00000000000000     0.85910000000000
Nb     Nb     0.00000000000000     0.00000000000000     0.14110000000000
Nb     Nb     0.00000000000000     0.00000000000000     0.64110000000000
Zn     Zn     0.33333330000000     0.66666670000000     0.30350000000000
Zn     Zn     0.33333330000000     0.66666670000000     0.80350000000000
Zn     Zn     0.66666670000000     0.33333330000000     0.20640000000000
Zn     Zn     0.66666670000000     0.33333330000000     0.70640000000000
Mn     Mn     0.33333330000000     0.66666670000000     0.01750000000000
Mn     Mn     0.33333330000000     0.66666670000000     0.51750000000000
Mn     Mn     0.66666670000000     0.33333300000000     0.48760000000000
Mn     Mn     0.66666700000000     0.33333330000000     0.98760000000000
O      O      0.33700000000000     0.31100000000000     0.08800000000000
O      O      0.68900000000000     0.02600000000000     0.08800000000000
O      O      0.97400000000000     0.66300000000000     0.08800000000000
O      O      0.68900000000000     0.66300000000000     0.58800000000000
O      O      0.97400000000000     0.31100000000000     0.58800000000000
O      O      0.33700000000000     0.02600000000000     0.58800000000000
O      O      0.30800000000000     0.33400000000000     0.41300000000000
O      O      0.66600000000000     0.97400000000000     0.41300000000000
O      O      0.02600000000000     0.69200000000000     0.41300000000000
O      O      0.66600000000000     0.69200000000000     0.91300000000000
O      O      0.02600000000000     0.33400000000000     0.91300000000000
O      O      0.30800000000000     0.97400000000000     0.91300000000000
O      O      0.27500000000000     0.99900000000000     0.25900000000000
O      O      0.00100000000000     0.27600000000000     0.25900000000000
O      O      0.72400000000000     0.72500000000000     0.25900000000000
O      O      0.00100000000000     0.72500000000000     0.75900000000000
O      O      0.72400000000000     0.99900000000000     0.75900000000000
O      O      0.27500000000000     0.27600000000000     0.75900000000000
