data_convert
_cell_volume           293.852274
_symmetry_space_group_name_H-M 'P 1'
_symmetry_Int_Tables_number 1
loop_
_symmetry_equiv_pos_site_id
_symmetry_equiv_pos_as_xyz
1 x,y,z
_cell_length_a         7.7650000000
_cell_length_b         7.7650000000
_cell_length_c         5.6275000000
_cell_angle_alpha        90.0000
_cell_angle_beta        90.0000
_cell_angle_gamma       120.0000
_cell_formula_units_Z 1
loop_
_atom_site_label
_atom_site_type_symbol
_atom_site_fract_x
_atom_site_fract_y
_atom_site_fract_z
Si     Si     0.51060000000000     0.08150000000000     0.19040000000000
Si     Si     0.42910000000000     0.91850000000000     0.69040000000000
Si     Si     0.91850000000000     0.42910000000000     0.19040000000000
Si     Si     0.08150000000000     0.51060000000000     0.69040000000000
Si     Si     0.57090000000000     0.48940000000000     0.19040000000000
Si     Si     0.48940000000000     0.57090000000000     0.69040000000000
Si     Si     0.16580000000000     0.25200000000000     0.98320000000000
Si     Si     0.91380000000000     0.74800000000000     0.48320000000000
Si     Si     0.74800000000000     0.91380000000000     0.98320000000000
Si     Si     0.25200000000000     0.16580000000000     0.48320000000000
Si     Si     0.08620000000000     0.83420000000000     0.98320000000000
Si     Si     0.83420000000000     0.08620000000000     0.48320000000000
N      N      0.00000000000000     0.00000000000000     0.97100000000000
N      N      0.00000000000000     0.00000000000000     0.47100000000000
N      N      0.33333333000000     0.66666667000000     0.63400000000000
N      N      0.66666666000000     0.33333333000000     0.13400000000000
N      N      0.34880000000000     0.96170000000000     0.97800000000000
N      N      0.38710000000000     0.03830000000000     0.47800000000000
N      N      0.03830000000000     0.38710000000000     0.97800000000000
N      N      0.96170000000000     0.34880000000000     0.47800000000000
N      N      0.61290000000000     0.65120000000000     0.97800000000000
N      N      0.65120000000000     0.61290000000000     0.47800000000000
N      N      0.30920000000000     0.35460000000000     0.23000000000000
N      N      0.95460000000000     0.64540000000000     0.73000000000000
N      N      0.64540000000000     0.95460000000000     0.23000000000000
N      N      0.35460000000000     0.30920000000000     0.73000000000000
N      N      0.04540000000000     0.69080000000000     0.23000000000000
N      N      0.69080000000000     0.04540000000000     0.73000000000000
