data_convert
_cell_volume           293.709757
_symmetry_space_group_name_H-M 'P 1'
_symmetry_Int_Tables_number 1
loop_
_symmetry_equiv_pos_site_id
_symmetry_equiv_pos_as_xyz
1 x,y,z
_cell_length_a         6.8800000000
_cell_length_b         6.8800000000
_cell_length_c         6.8800000000
_cell_angle_alpha       103.4200
_cell_angle_beta       103.4200
_cell_angle_gamma       103.4200
_cell_formula_units_Z 1
loop_
_atom_site_label
_atom_site_type_symbol
_atom_site_fract_x
_atom_site_fract_y
_atom_site_fract_z
As     As     0.08520000000000     0.08520000000000     0.08520000000000
As     As     0.58520000000000     0.58520000000000     0.58520000000000
Ag     Ag     0.63300000000000     0.50000000000000     0.00000000000000
Ag     Ag     0.13300000000000     0.50000000000000     0.00000000000000
Ag     Ag     0.00000000000000     0.63300000000000     0.50000000000000
Ag     Ag     0.00000000000000     0.13300000000000     0.50000000000000
Ag     Ag     0.50000000000000     0.00000000000000     0.63300000000000
Ag     Ag     0.50000000000000     0.00000000000000     0.13300000000000
S      S      0.80600000000000     0.19400000000000     0.00000000000000
S      S      0.30600000000000     0.50000000000000     0.69400000000000
S      S      0.00000000000000     0.80600000000000     0.19400000000000
S      S      0.69400000000000     0.30600000000000     0.50000000000000
S      S      0.19400000000000     0.00000000000000     0.80600000000000
S      S      0.50000000000000     0.69400000000000     0.30600000000000
