data_convert
_cell_volume           121.856656
_symmetry_space_group_name_H-M 'P 1'
_symmetry_Int_Tables_number 1
loop_
_symmetry_equiv_pos_site_id
_symmetry_equiv_pos_as_xyz
1 x,y,z
_cell_length_a         6.3600000000
_cell_length_b         6.3600000000
_cell_length_c         6.3600000000
_cell_angle_alpha        46.1000
_cell_angle_beta        46.1000
_cell_angle_gamma        46.1000
_cell_formula_units_Z 1
loop_
_atom_site_label
_atom_site_type_symbol
_atom_site_fract_x
_atom_site_fract_y
_atom_site_fract_z
Ca     Ca     0.25000000000000     0.25000000000000     0.25000000000000
Ca     Ca     0.75000000000000     0.75000000000000     0.75000000000000
C      C      0.00000000000000     0.00000000000000     0.00000000000000
C      C      0.50000000000000     0.50000000000000     0.50000000000000
O      O      0.26351000000000     0.73649000000000     0.00000000000000
O      O      0.76351000000000     0.50000000000000     0.23649000000000
O      O      0.00000000000000     0.26351000000000     0.73649000000000
O      O      0.23649000000000     0.76351000000000     0.50000000000000
O      O      0.73649000000000     0.00000000000000     0.26351000000000
O      O      0.50000000000000     0.23649000000000     0.76351000000000
