data_convert
_cell_volume           130.436328
_symmetry_space_group_name_H-M 'P 1'
_symmetry_Int_Tables_number 1
loop_
_symmetry_equiv_pos_site_id
_symmetry_equiv_pos_as_xyz
1 x,y,z
_cell_length_a         5.2950000000
_cell_length_b         5.2950000000
_cell_length_c         5.3720000000
_cell_angle_alpha        90.0000
_cell_angle_beta        90.0000
_cell_angle_gamma       120.0000
_cell_formula_units_Z 1
loop_
_atom_site_label
_atom_site_type_symbol
_atom_site_fract_x
_atom_site_fract_y
_atom_site_fract_z
Pb     Pb     0.00000000000000     0.00000000000000     0.00000000000000
Sb     Sb     0.33333333000000     0.66666667000000     0.50000000000000
Sb     Sb     0.66666666000000     0.33333333000000     0.50000000000000
O      O      0.37700000000000     0.00000000000000     0.29650000000000
O      O      0.00000000000000     0.62300000000000     0.70350000000000
O      O      0.62300000000000     0.62300000000000     0.29650000000000
O      O      0.62300000000000     0.00000000000000     0.70350000000000
O      O      0.00000000000000     0.37700000000000     0.29650000000000
O      O      0.37700000000000     0.37700000000000     0.70350000000000
