data_stdin
_audit_creation_method 'critic2-4f1eba8'
_cell_length_a         5.9820000000
_cell_length_b         5.9820000000
_cell_length_c        11.5090000000
_cell_angle_alpha        90.0000
_cell_angle_beta        90.0000
_cell_angle_gamma       120.0000
_cell_volume           356.665448
_space_group_crystal_system trigonal
_space_group_IT_number 163
_space_group_name_H-M_alt 'P-31c'
_space_group_name_Hall '-P 3 2c'
loop_
_space_group_symop_operation_xyz
  'x,y,z'
  '-x,-y,-z'
  '-y,x-y,z'
  'y,-x+y,-z'
  '-x+y,-x,z'
  'x-y,x,-z'
  '-y,-x,-1/2-z'
  'y,x,-1/2+z'
  '-x+y,y,-1/2-z'
  'x-y,-y,-1/2+z'
  'x,x-y,-1/2-z'
  '-x,-x+y,-1/2+z'
loop_
_atom_site_label
_atom_site_type_symbol
_atom_site_fract_x
_atom_site_fract_y
_atom_site_fract_z
Cr     Cr     0.00000000000000     0.00000000000000     0.25000000000000
Cr     Cr     0.33333333000000     0.66666667000000     0.25000000000000
Cr     Cr     0.00000000000000     0.00000000000000     0.00000000000000
Cr     Cr     0.33333333000000     0.66666667000000     0.00000000000000
S      S      0.33333333000000     0.00000000000000     0.37500000000000
