data_convert
_cell_volume           308.861259
_symmetry_space_group_name_H-M 'P 1'
_symmetry_Int_Tables_number 1
loop_
_symmetry_equiv_pos_site_id
_symmetry_equiv_pos_as_xyz
1 x,y,z
_cell_length_a         7.0700000000
_cell_length_b         7.0700000000
_cell_length_c         7.1350000000
_cell_angle_alpha        90.0000
_cell_angle_beta        90.0000
_cell_angle_gamma       120.0000
_cell_formula_units_Z 1
loop_
_atom_site_label
_atom_site_type_symbol
_atom_site_fract_x
_atom_site_fract_y
_atom_site_fract_z
Cu     Cu     0.00000000000000     0.00000000000000     0.00000000000000
Cu     Cu     0.00000000000000     0.00000000000000     0.50000000000000
Cu     Cu     0.33333333000000     0.66666667000000     0.17000000000000
Cu     Cu     0.33333333000000     0.66666667000000     0.67000000000000
Cu     Cu     0.66666667000000     0.33333334000000     0.83000000000000
Cu     Cu     0.66666667000000     0.33333334000000     0.33000000000000
Cu     Cu     0.69000000000000     0.07000000000000     0.08000000000000
Cu     Cu     0.93000000000000     0.31000000000000     0.58000000000000
Cu     Cu     0.07000000000000     0.38000000000000     0.92000000000000
Cu     Cu     0.31000000000000     0.38000000000000     0.42000000000000
Cu     Cu     0.38000000000000     0.31000000000000     0.08000000000000
Cu     Cu     0.38000000000000     0.07000000000000     0.58000000000000
Cu     Cu     0.31000000000000     0.93000000000000     0.92000000000000
Cu     Cu     0.07000000000000     0.69000000000000     0.42000000000000
Cu     Cu     0.93000000000000     0.62000000000000     0.08000000000000
Cu     Cu     0.69000000000000     0.62000000000000     0.58000000000000
Cu     Cu     0.62000000000000     0.69000000000000     0.92000000000000
Cu     Cu     0.62000000000000     0.93000000000000     0.42000000000000
P      P      0.38000000000000     0.00000000000000     0.25000000000000
P      P      0.00000000000000     0.62000000000000     0.75000000000000
P      P      0.62000000000000     0.62000000000000     0.25000000000000
P      P      0.62000000000000     0.00000000000000     0.75000000000000
P      P      0.00000000000000     0.38000000000000     0.25000000000000
P      P      0.38000000000000     0.38000000000000     0.75000000000000
