data_stdin
_audit_creation_method 'critic2-4f1eba8'
_cell_length_a         4.7540000000
_cell_length_b         4.7540000000
_cell_length_c        12.9820000000
_cell_angle_alpha        90.0000
_cell_angle_beta        90.0000
_cell_angle_gamma       120.0000
_cell_volume           254.091766
_space_group_crystal_system trigonal
_space_group_IT_number 167
_space_group_name_H-M_alt 'R-3c'
_space_group_name_Hall '-R 3 2"c'
loop_
_space_group_symop_operation_xyz
  'x,y,z'
  '-x,-y,-z'
  '-y,x-y,z'
  'y,-x+y,-z'
  '-x+y,-x,z'
  'x-y,x,-z'
  '-2/3+y,-1/3+x,-5/6-z'
  '-2/3-y,-1/3-x,-5/6+z'
  '-2/3+x-y,-1/3-y,-5/6-z'
  '-2/3-x+y,-1/3+y,-5/6+z'
  '-2/3-x,-1/3-x+y,-5/6-z'
  '-2/3+x,-1/3+x-y,-5/6+z'
  '-1/3+x,-2/3+y,-2/3+z'
  '-1/3-x,-2/3-y,-2/3-z'
  '-1/3-y,-2/3+x-y,-2/3+z'
  '-1/3+y,-2/3-x+y,-2/3-z'
  '-1/3-x+y,-2/3-x,-2/3+z'
  '-1/3+x-y,-2/3+x,-2/3-z'
  'y,x,-1/2-z'
  '-y,-x,-1/2+z'
  'x-y,-y,-1/2-z'
  '-x+y,y,-1/2+z'
  '-x,-x+y,-1/2-z'
  'x,x-y,-1/2+z'
  '-2/3+x,-1/3+y,-1/3+z'
  '-2/3-x,-1/3-y,-1/3-z'
  '-2/3-y,-1/3+x-y,-1/3+z'
  '-2/3+y,-1/3-x+y,-1/3-z'
  '-2/3-x+y,-1/3-x,-1/3+z'
  '-2/3+x-y,-1/3+x,-1/3-z'
  '-1/3+y,-2/3+x,-1/6-z'
  '-1/3-y,-2/3-x,-1/6+z'
  '-1/3+x-y,-2/3-y,-1/6-z'
  '-1/3-x+y,-2/3+y,-1/6+z'
  '-1/3-x,-2/3-x+y,-1/6-z'
  '-1/3+x,-2/3+x-y,-1/6+z'
loop_
_atom_site_label
_atom_site_type_symbol
_atom_site_fract_x
_atom_site_fract_y
_atom_site_fract_z
Al     Al     0.00000000000000     0.00000000000000     0.35222000000000
O      O      0.69424000000000     0.00000000000000     0.25000000000000
