data_convert
_cell_volume          2145.336247
_symmetry_space_group_name_H-M 'P 1'
_symmetry_Int_Tables_number 1
loop_
_symmetry_equiv_pos_site_id
_symmetry_equiv_pos_as_xyz
1 x,y,z
_cell_length_a         9.9950000000
_cell_length_b         9.9950000000
_cell_length_c        24.7970000000
_cell_angle_alpha        90.0000
_cell_angle_beta        90.0000
_cell_angle_gamma       120.0000
_cell_formula_units_Z 1
loop_
_atom_site_label
_atom_site_type_symbol
_atom_site_fract_x
_atom_site_fract_y
_atom_site_fract_z
Na     Na     0.02050000000000     0.56480000000000     0.03560000000000
Na     Na     0.45570000000000     0.02050000000000     0.20226666666667
Na     Na     0.43520000000000     0.45570000000000     0.36893333333333
Na     Na     0.97950000000000     0.43520000000000     0.53560000000000
Na     Na     0.54430000000000     0.97950000000000     0.70226666666667
Na     Na     0.56480000000000     0.54430000000000     0.86893333333333
Na     Na     0.47350000000000     0.44210000000000     0.03030000000000
Na     Na     0.03140000000000     0.47350000000000     0.19696666666667
Na     Na     0.55790000000000     0.03140000000000     0.36363333333333
Na     Na     0.52650000000000     0.55790000000000     0.53030000000000
Na     Na     0.96860000000000     0.52650000000000     0.69696666666667
Na     Na     0.44210000000000     0.96860000000000     0.86363333333333
Na     Na     0.51830000000000     0.55740000000000     0.18640000000000
Na     Na     0.96090000000000     0.51830000000000     0.35306666666667
Na     Na     0.44260000000000     0.96090000000000     0.51973333333333
Na     Na     0.48170000000000     0.44260000000000     0.68640000000000
Na     Na     0.03910000000000     0.48170000000000     0.85306666666667
Na     Na     0.55740000000000     0.03910000000000     0.01973333333333
Na     Na     0.00430000000000     0.01490000000000     0.02800000000000
Na     Na     0.98940000000000     0.00430000000000     0.19466666666667
Na     Na     0.98510000000000     0.98940000000000     0.36133333333333
Na     Na     0.99570000000000     0.98510000000000     0.52800000000000
Na     Na     0.01060000000000     0.99570000000000     0.69466666666667
Na     Na     0.01490000000000     0.01060000000000     0.86133333333333
Al     Al     0.32660000000000     0.09800000000000     0.08640000000000
Al     Al     0.22860000000000     0.32660000000000     0.25306666666667
Al     Al     0.90200000000000     0.22860000000000     0.41973333333333
Al     Al     0.67340000000000     0.90200000000000     0.58640000000000
Al     Al     0.77140000000000     0.67340000000000     0.75306666666667
Al     Al     0.09800000000000     0.77140000000000     0.91973333333333
Al     Al     0.88070000000000     0.24560000000000     0.09170000000000
Al     Al     0.63510000000000     0.88070000000000     0.25836666666667
Al     Al     0.75440000000000     0.63510000000000     0.42503333333333
Al     Al     0.11930000000000     0.75440000000000     0.59170000000000
Al     Al     0.36490000000000     0.11930000000000     0.75836666666667
Al     Al     0.24560000000000     0.36490000000000     0.92503333333333
Al     Al     0.81110000000000     0.70800000000000     0.09540000000000
Al     Al     0.10310000000000     0.81110000000000     0.26206666666667
Al     Al     0.29200000000000     0.10310000000000     0.42873333333333
Al     Al     0.18890000000000     0.29200000000000     0.59540000000000
Al     Al     0.89690000000000     0.18890000000000     0.76206666666667
Al     Al     0.70800000000000     0.89690000000000     0.92873333333333
Al     Al     0.33080000000000     0.64520000000000     0.09060000000000
Al     Al     0.68560000000000     0.33080000000000     0.25726666666667
Al     Al     0.35480000000000     0.68560000000000     0.42393333333333
Al     Al     0.66920000000000     0.35480000000000     0.59060000000000
Al     Al     0.31440000000000     0.66920000000000     0.75726666666667
Al     Al     0.64520000000000     0.31440000000000     0.92393333333333
Si     Si     0.20240000000000     0.30360000000000     0.12790000000000
Si     Si     0.89880000000000     0.20240000000000     0.29456666666667
Si     Si     0.69640000000000     0.89880000000000     0.46123333333333
Si     Si     0.79760000000000     0.69640000000000     0.62790000000000
Si     Si     0.10120000000000     0.79760000000000     0.79456666666667
Si     Si     0.30360000000000     0.10120000000000     0.96123333333333
Si     Si     0.36370000000000     0.70230000000000     0.96260000000000
Si     Si     0.66140000000000     0.36370000000000     0.12926666666667
Si     Si     0.29770000000000     0.66140000000000     0.29593333333333
Si     Si     0.63630000000000     0.29770000000000     0.46260000000000
Si     Si     0.33860000000000     0.63630000000000     0.62926666666667
Si     Si     0.70230000000000     0.33860000000000     0.79593333333333
Si     Si     0.91220000000000     0.23640000000000     0.96500000000000
Si     Si     0.67580000000000     0.91220000000000     0.13166666666667
Si     Si     0.76360000000000     0.67580000000000     0.29833333333333
Si     Si     0.08780000000000     0.76360000000000     0.46500000000000
Si     Si     0.32420000000000     0.08780000000000     0.63166666666667
Si     Si     0.23640000000000     0.32420000000000     0.79833333333333
Si     Si     0.13340000000000     0.77820000000000     0.13580000000000
Si     Si     0.35520000000000     0.13340000000000     0.30246666666667
Si     Si     0.22180000000000     0.35520000000000     0.46913333333333
Si     Si     0.86660000000000     0.22180000000000     0.63580000000000
Si     Si     0.64480000000000     0.86660000000000     0.80246666666667
Si     Si     0.77820000000000     0.64480000000000     0.96913333333333
O      O      0.31370000000000     0.46290000000000     0.09670000000000
O      O      0.85080000000000     0.31370000000000     0.26336666666667
O      O      0.53710000000000     0.85080000000000     0.43003333333333
O      O      0.68630000000000     0.53710000000000     0.59670000000000
O      O      0.14920000000000     0.68630000000000     0.76336666666667
O      O      0.46290000000000     0.14920000000000     0.93003333333333
O      O      0.05840000000000     0.33630000000000     0.92590000000000
O      O      0.72210000000000     0.05840000000000     0.09256666666667
O      O      0.66370000000000     0.72210000000000     0.25923333333333
O      O      0.94160000000000     0.66370000000000     0.42590000000000
O      O      0.27790000000000     0.94160000000000     0.59256666666667
O      O      0.33630000000000     0.27790000000000     0.75923333333333
O      O      0.02810000000000     0.27290000000000     0.13620000000000
O      O      0.75520000000000     0.02810000000000     0.30286666666667
O      O      0.72710000000000     0.75520000000000     0.46953333333333
O      O      0.97190000000000     0.72710000000000     0.63620000000000
O      O      0.24480000000000     0.97190000000000     0.80286666666667
O      O      0.27290000000000     0.24480000000000     0.96953333333333
O      O      0.27650000000000     0.31310000000000     0.18690000000000
O      O      0.96340000000000     0.27650000000000     0.35356666666667
O      O      0.68690000000000     0.96340000000000     0.52023333333333
O      O      0.72350000000000     0.68690000000000     0.68690000000000
O      O      0.03660000000000     0.72350000000000     0.85356666666667
O      O      0.31310000000000     0.03660000000000     0.02023333333333
O      O      0.05810000000000     0.75410000000000     0.19500000000000
O      O      0.30400000000000     0.05810000000000     0.36166666666667
O      O      0.24590000000000     0.30400000000000     0.52833333333333
O      O      0.94190000000000     0.24590000000000     0.69500000000000
O      O      0.69600000000000     0.94190000000000     0.86166666666667
O      O      0.75410000000000     0.69600000000000     0.02833333333333
O      O      0.19180000000000     0.15870000000000     0.09550000000000
O      O      0.03310000000000     0.19180000000000     0.26216666666667
O      O      0.84130000000000     0.03310000000000     0.42883333333333
O      O      0.80820000000000     0.84130000000000     0.59550000000000
O      O      0.96690000000000     0.80820000000000     0.76216666666667
O      O      0.15870000000000     0.96690000000000     0.92883333333333
O      O      0.68100000000000     0.53480000000000     0.12640000000000
O      O      0.14620000000000     0.68100000000000     0.29306666666667
O      O      0.46520000000000     0.14620000000000     0.45973333333333
O      O      0.31900000000000     0.46520000000000     0.62640000000000
O      O      0.85380000000000     0.31900000000000     0.79306666666667
O      O      0.53480000000000     0.85380000000000     0.95973333333333
O      O      0.86170000000000     0.05430000000000     0.96060000000000
O      O      0.80740000000000     0.86170000000000     0.12726666666667
O      O      0.94570000000000     0.80740000000000     0.29393333333333
O      O      0.13830000000000     0.94570000000000     0.46060000000000
O      O      0.19260000000000     0.13830000000000     0.62726666666667
O      O      0.05430000000000     0.19260000000000     0.79393333333333
O      O      0.96000000000000     0.29040000000000     0.02710000000000
O      O      0.66960000000000     0.96000000000000     0.19376666666667
O      O      0.70960000000000     0.66960000000000     0.36043333333333
O      O      0.04000000000000     0.70960000000000     0.52710000000000
O      O      0.33040000000000     0.04000000000000     0.69376666666667
O      O      0.29040000000000     0.33040000000000     0.86043333333333
O      O      0.76960000000000     0.25870000000000     0.94930000000000
O      O      0.51090000000000     0.76960000000000     0.11596666666667
O      O      0.74130000000000     0.51090000000000     0.28263333333333
O      O      0.23040000000000     0.74130000000000     0.44930000000000
O      O      0.48910000000000     0.23040000000000     0.61596666666667
O      O      0.25870000000000     0.48910000000000     0.78263333333333
O      O      0.17990000000000     0.64540000000000     0.12620000000000
O      O      0.53450000000000     0.17990000000000     0.29286666666667
O      O      0.35460000000000     0.53450000000000     0.45953333333333
O      O      0.82010000000000     0.35460000000000     0.62620000000000
O      O      0.46550000000000     0.82010000000000     0.79286666666667
O      O      0.64540000000000     0.46550000000000     0.95953333333333
O      O      0.51670000000000     0.24850000000000     0.09180000000000
O      O      0.26820000000000     0.51670000000000     0.25846666666667
O      O      0.75150000000000     0.26820000000000     0.42513333333333
O      O      0.48330000000000     0.75150000000000     0.59180000000000
O      O      0.73180000000000     0.48330000000000     0.75846666666667
O      O      0.24850000000000     0.73180000000000     0.92513333333333
O      O      0.28810000000000     0.94670000000000     0.13030000000000
O      O      0.34140000000000     0.28810000000000     0.29696666666667
O      O      0.05330000000000     0.34140000000000     0.46363333333333
O      O      0.71190000000000     0.05330000000000     0.63030000000000
O      O      0.65860000000000     0.71190000000000     0.79696666666667
O      O      0.94670000000000     0.65860000000000     0.96363333333333
O      O      0.30240000000000     0.67740000000000     0.02390000000000
O      O      0.62500000000000     0.30240000000000     0.19056666666667
O      O      0.32260000000000     0.62500000000000     0.35723333333333
O      O      0.69760000000000     0.32260000000000     0.52390000000000
O      O      0.37500000000000     0.69760000000000     0.69056666666667
O      O      0.67740000000000     0.37500000000000     0.85723333333333
O      O      0.00450000000000     0.75620000000000     0.09200000000000
O      O      0.24830000000000     0.00450000000000     0.25866666666667
O      O      0.24380000000000     0.24830000000000     0.42533333333333
O      O      0.99550000000000     0.24380000000000     0.59200000000000
O      O      0.75170000000000     0.99550000000000     0.75866666666667
O      O      0.75620000000000     0.75170000000000     0.92533333333333
O      O      0.82120000000000     0.37660000000000     0.10860000000000
O      O      0.44460000000000     0.82120000000000     0.27526666666667
O      O      0.62340000000000     0.44460000000000     0.44193333333333
O      O      0.17880000000000     0.62340000000000     0.60860000000000
O      O      0.55540000000000     0.17880000000000     0.77526666666667
O      O      0.37660000000000     0.55540000000000     0.94193333333333
