data_stdin
_audit_creation_method 'critic2-4f1eba8'
_cell_length_a        14.0580000000
_cell_length_b        14.0580000000
_cell_length_c        15.6240000000
_cell_angle_alpha        90.0000
_cell_angle_beta        90.0000
_cell_angle_gamma       120.0000
_cell_volume          2674.052564
_space_group_crystal_system hexagonal
_space_group_IT_number 170
_space_group_name_H-M_alt 'P6_5'
_space_group_name_Hall 'P 65'
loop_
_space_group_symop_operation_xyz
  'x,y,z'
  'x-y,x,-1/6+z'
  '-y,x-y,-1/3+z'
  '-x,-y,-1/2+z'
  '-x+y,-x,-2/3+z'
  'y,-x+y,-5/6+z'
loop_
_atom_site_label
_atom_site_type_symbol
_atom_site_fract_x
_atom_site_fract_y
_atom_site_fract_z
O      O      0.45750000000000     0.22350000000000     0.03880000000000
O      O      0.52000000000000     0.29100000000000     0.11340000000000
O      O      0.51860000000000     0.75490000000000     0.96430000000000
O      O      0.59310000000000     0.17940000000000     0.00590000000000
H      H      0.63340000000000     0.21680000000000     0.04500000000000
C      C      0.45900000000000     0.23010000000000     0.18410000000000
H      H      0.38840000000000     0.22660000000000     0.18370000000000
H      H      0.49710000000000     0.26770000000000     0.23610000000000
C      C      0.44040000000000     0.11380000000000     0.18560000000000
C      C      0.45690000000000     0.07330000000000     0.11400000000000
C      C      0.44910000000000     0.96120000000000     0.10580000000000
H      H      0.41470000000000     0.92010000000000     0.15830000000000
C      C      0.56080000000000     0.97330000000000     0.10020000000000
H      H      0.61790000000000     0.03220000000000     0.12890000000000
C      C      0.58470000000000     0.90610000000000     0.05730000000000
C      C      0.49970000000000     0.81530000000000     0.01110000000000
C      C      0.38190000000000     0.78950000000000     0.02330000000000
H      H      0.33780000000000     0.74750000000000     0.97490000000000
H      H      0.35150000000000     0.74540000000000     0.07450000000000
C      C      0.37690000000000     0.89530000000000     0.03160000000000
H      H      0.30110000000000     0.87490000000000     0.04560000000000
C      C      0.40730000000000     0.95970000000000     0.94770000000000
H      H      0.48140000000000     0.97650000000000     0.93130000000000
C      C      0.40760000000000     0.06940000000000     0.95850000000000
H      H      0.43200000000000     0.11100000000000     0.90570000000000
H      H      0.33350000000000     0.05410000000000     0.97010000000000
C      C      0.48190000000000     0.13640000000000     0.03040000000000
C      C      0.40360000000000     0.05790000000000     0.26990000000000
H      H      0.39810000000000     0.10650000000000     0.31010000000000
H      H      0.45590000000000     0.03820000000000     0.29040000000000
H      H      0.33320000000000     0.99280000000000     0.26360000000000
C      C      0.32790000000000     0.89360000000000     0.87460000000000
H      H      0.35050000000000     0.93620000000000     0.82290000000000
H      H      0.25490000000000     0.87690000000000     0.88930000000000
H      H      0.32900000000000     0.82650000000000     0.86600000000000
C      C      0.69860000000000     0.92550000000000     0.05010000000000
H      H      0.69830000000000     0.86850000000000     0.01600000000000
H      H      0.72640000000000     0.92520000000000     0.10610000000000
H      H      0.74460000000000     0.99540000000000     0.02340000000000
