data_stdin
_audit_creation_method 'critic2-4f1eba8'
_cell_length_a         8.8027000000
_cell_length_b         8.8027000000
_cell_length_c        12.7893000000
_cell_angle_alpha        90.0000
_cell_angle_beta        90.0000
_cell_angle_gamma       120.0000
_cell_volume           858.240903
_space_group_crystal_system hexagonal
_space_group_IT_number 172
_space_group_name_H-M_alt 'P6_4'
_space_group_name_Hall 'P 64'
loop_
_space_group_symop_operation_xyz
  'x,y,z'
  'x-y,x,-1/3+z'
  '-y,x-y,-2/3+z'
  '-x,-y,z'
  '-x+y,-x,-1/3+z'
  'y,-x+y,-2/3+z'
loop_
_atom_site_label
_atom_site_type_symbol
_atom_site_fract_x
_atom_site_fract_y
_atom_site_fract_z
H      H      0.07540000000000     0.25330000000000     0.36910000000000
H      H      0.87110000000000     0.04720000000000     0.22270000000000
C      C      0.72480000000000     0.24470000000000     0.34510000000000
C      C      0.96160000000000     0.22870000000000     0.34870000000000
C      C      0.85470000000000     0.12120000000000     0.26980000000000
C      C      0.58390000000000     0.28590000000000     0.37480000000000
N      N      0.70490000000000     0.13250000000000     0.26787000000000
N      N      0.87790000000000     0.30660000000000     0.39650000000000
F      F      0.48320000000000     0.18500000000000     0.45540000000000
F      F      0.65210000000000     0.45500000000000     0.40550000000000
F      F      0.47400000000000     0.25870000000000     0.29390000000000
Zn     Zn     0.50000000000000     0.00000000000000     0.16925000000000
