data_convert
_cell_volume           427.460621
_symmetry_space_group_name_H-M 'P 1'
_symmetry_Int_Tables_number 1
loop_
_symmetry_equiv_pos_site_id
_symmetry_equiv_pos_as_xyz
1 x,y,z
_cell_length_a        11.5796100000
_cell_length_b        11.5796100000
_cell_length_c         3.6811000000
_cell_angle_alpha        90.0000
_cell_angle_beta        90.0000
_cell_angle_gamma       120.0000
_cell_formula_units_Z 1
loop_
_atom_site_label
_atom_site_type_symbol
_atom_site_fract_x
_atom_site_fract_y
_atom_site_fract_z
Mg     Mg     0.58400000000000     0.86770000000000     0.00000000000000
Mg     Mg     0.71630000000000     0.58400000000000     0.00000000000000
Mg     Mg     0.13230000000000     0.71630000000000     0.00000000000000
Mg     Mg     0.41600000000000     0.13230000000000     0.00000000000000
Mg     Mg     0.28370000000000     0.41600000000000     0.00000000000000
Mg     Mg     0.86770000000000     0.28370000000000     0.00000000000000
H      H      0.42730000000000     0.76660000000000     0.50000000000000
H      H      0.66070000000000     0.42730000000000     0.50000000000000
H      H      0.23340000000000     0.66070000000000     0.50000000000000
H      H      0.57270000000000     0.23340000000000     0.50000000000000
H      H      0.33930000000000     0.57270000000000     0.50000000000000
H      H      0.76660000000000     0.33930000000000     0.50000000000000
N      N      0.49540000000000     0.86330000000000     0.50000000000000
N      N      0.63210000000000     0.49540000000000     0.50000000000000
N      N      0.13670000000000     0.63210000000000     0.50000000000000
N      N      0.50460000000000     0.13670000000000     0.50000000000000
N      N      0.36790000000000     0.50460000000000     0.50000000000000
N      N      0.86330000000000     0.36790000000000     0.50000000000000
H      H      0.94020000000000     0.74500000000000     0.00000000000000
H      H      0.19520000000000     0.94020000000000     0.00000000000000
H      H      0.25500000000000     0.19520000000000     0.00000000000000
H      H      0.05980000000000     0.25500000000000     0.00000000000000
H      H      0.80480000000000     0.05980000000000     0.00000000000000
H      H      0.74500000000000     0.80480000000000     0.00000000000000
Mg     Mg     0.92850000000000     0.57210000000000     0.50000000000000
Mg     Mg     0.35640000000000     0.92850000000000     0.50000000000000
Mg     Mg     0.42790000000000     0.35640000000000     0.50000000000000
Mg     Mg     0.07150000000000     0.42790000000000     0.50000000000000
Mg     Mg     0.64360000000000     0.07150000000000     0.50000000000000
Mg     Mg     0.57210000000000     0.64360000000000     0.50000000000000
N      N      0.65170000000000     0.72790000000000     0.00000000000000
N      N      0.92380000000000     0.65170000000000     0.00000000000000
N      N      0.27210000000000     0.92380000000000     0.00000000000000
N      N      0.34830000000000     0.27210000000000     0.00000000000000
N      N      0.07620000000000     0.34830000000000     0.00000000000000
N      N      0.72790000000000     0.07620000000000     0.00000000000000
