data_convert
_cell_volume          2550.679071
_symmetry_space_group_name_H-M 'P 1'
_symmetry_Int_Tables_number 1
loop_
_symmetry_equiv_pos_site_id
_symmetry_equiv_pos_as_xyz
1 x,y,z
_cell_length_a        16.7850000000
_cell_length_b        16.7850000000
_cell_length_c        10.4540000000
_cell_angle_alpha        90.0000
_cell_angle_beta        90.0000
_cell_angle_gamma       120.0000
_cell_formula_units_Z 1
loop_
_atom_site_label
_atom_site_type_symbol
_atom_site_fract_x
_atom_site_fract_y
_atom_site_fract_z
Ba     Ba     0.18579000000000     0.50676000000000     0.00000000000000
Ba     Ba     0.32097000000000     0.81421000000000     0.00000000000000
Ba     Ba     0.67903000000000     0.18579000000000     0.00000000000000
Ba     Ba     0.50676000000000     0.32097000000000     0.00000000000000
Ba     Ba     0.49324000000000     0.67903000000000     0.00000000000000
Ba     Ba     0.81421000000000     0.49324000000000     0.00000000000000
Ti     Ti     0.34879000000000     0.41959000000000     0.00000000000000
Ti     Ti     0.07080000000000     0.65121000000000     0.00000000000000
Ti     Ti     0.92920000000000     0.34879000000000     0.00000000000000
Ti     Ti     0.41959000000000     0.07080000000000     0.00000000000000
Ti     Ti     0.58041000000000     0.92920000000000     0.00000000000000
Ti     Ti     0.65121000000000     0.58041000000000     0.00000000000000
Ti     Ti     0.37460000000000     0.43420000000000     0.00000000000000
Ti     Ti     0.05960000000000     0.62540000000000     0.00000000000000
Ti     Ti     0.94040000000000     0.37460000000000     0.00000000000000
Ti     Ti     0.43420000000000     0.05960000000000     0.00000000000000
Ti     Ti     0.56580000000000     0.94040000000000     0.00000000000000
Ti     Ti     0.62540000000000     0.56580000000000     0.00000000000000
Mn     Mn     0.13608000000000     0.22088000000000     0.00000000000000
Mn     Mn     0.08480000000000     0.86392000000000     0.00000000000000
Mn     Mn     0.91520000000000     0.13608000000000     0.00000000000000
Mn     Mn     0.22088000000000     0.08480000000000     0.00000000000000
Mn     Mn     0.77912000000000     0.91520000000000     0.00000000000000
Mn     Mn     0.86392000000000     0.77912000000000     0.00000000000000
Ca     Ca     0.33333333300000     0.66666667000000     0.50000000000000
Ca     Ca     0.66666666300000     0.33333333300000     0.50000000000000
K      K      0.00000000000000     0.00000000000000     0.50000000000000
Na     Na     0.51800000000000     0.50000000000000     0.50000000000000
Na     Na     0.98200000000000     0.48200000000000     0.50000000000000
Na     Na     0.01800000000000     0.51800000000000     0.50000000000000
Na     Na     0.50000000000000     0.98200000000000     0.50000000000000
Na     Na     0.50000000000000     0.01800000000000     0.50000000000000
Na     Na     0.48200000000000     0.50000000000000     0.50000000000000
Na     Na     0.18750000000000     0.34190000000000     0.50000000000000
Na     Na     0.15440000000000     0.81250000000000     0.50000000000000
Na     Na     0.84560000000000     0.18750000000000     0.50000000000000
Na     Na     0.34190000000000     0.15440000000000     0.50000000000000
Na     Na     0.65810000000000     0.84560000000000     0.50000000000000
Na     Na     0.81250000000000     0.65810000000000     0.50000000000000
Si     Si     0.32540000000000     0.50460000000000     0.27216000000000
Si     Si     0.17920000000000     0.67460000000000     0.72784000000000
Si     Si     0.82080000000000     0.32540000000000     0.27216000000000
Si     Si     0.50460000000000     0.17920000000000     0.72784000000000
Si     Si     0.49540000000000     0.82080000000000     0.27216000000000
Si     Si     0.32540000000000     0.50460000000000     0.72784000000000
Si     Si     0.67460000000000     0.49540000000000     0.27216000000000
Si     Si     0.82080000000000     0.32540000000000     0.72784000000000
Si     Si     0.17920000000000     0.67460000000000     0.27216000000000
Si     Si     0.49540000000000     0.82080000000000     0.72784000000000
Si     Si     0.50460000000000     0.17920000000000     0.27216000000000
Si     Si     0.67460000000000     0.49540000000000     0.72784000000000
Si     Si     0.36326000000000     0.34795000000000     0.28635000000000
Si     Si     0.98469000000000     0.63674000000000     0.71365000000000
Si     Si     0.01531000000000     0.36326000000000     0.28635000000000
Si     Si     0.34795000000000     0.98469000000000     0.71365000000000
Si     Si     0.65205000000000     0.01531000000000     0.28635000000000
Si     Si     0.36326000000000     0.34795000000000     0.71365000000000
Si     Si     0.63674000000000     0.65205000000000     0.28635000000000
Si     Si     0.01531000000000     0.36326000000000     0.71365000000000
Si     Si     0.98469000000000     0.63674000000000     0.28635000000000
Si     Si     0.65205000000000     0.01531000000000     0.71365000000000
Si     Si     0.34795000000000     0.98469000000000     0.28635000000000
Si     Si     0.63674000000000     0.65205000000000     0.71365000000000
Si     Si     0.19159000000000     0.16323000000000     0.28020000000000
Si     Si     0.97164000000000     0.80841000000000     0.71980000000000
Si     Si     0.02836000000000     0.19159000000000     0.28020000000000
Si     Si     0.16323000000000     0.97164000000000     0.71980000000000
Si     Si     0.83677000000000     0.02836000000000     0.28020000000000
Si     Si     0.19159000000000     0.16323000000000     0.71980000000000
Si     Si     0.80841000000000     0.83677000000000     0.28020000000000
Si     Si     0.02836000000000     0.19159000000000     0.71980000000000
Si     Si     0.97164000000000     0.80841000000000     0.28020000000000
Si     Si     0.83677000000000     0.02836000000000     0.71980000000000
Si     Si     0.16323000000000     0.97164000000000     0.28020000000000
Si     Si     0.80841000000000     0.83677000000000     0.71980000000000
B      B      0.17630000000000     0.51250000000000     0.37280000000000
B      B      0.33620000000000     0.82370000000000     0.62720000000000
B      B      0.66380000000000     0.17630000000000     0.37280000000000
B      B      0.51250000000000     0.33620000000000     0.62720000000000
B      B      0.48750000000000     0.66380000000000     0.37280000000000
B      B      0.17630000000000     0.51250000000000     0.62720000000000
B      B      0.82370000000000     0.48750000000000     0.37280000000000
B      B      0.66380000000000     0.17630000000000     0.62720000000000
B      B      0.33620000000000     0.82370000000000     0.37280000000000
B      B      0.48750000000000     0.66380000000000     0.62720000000000
B      B      0.51250000000000     0.33620000000000     0.37280000000000
B      B      0.82370000000000     0.48750000000000     0.62720000000000
O      O      0.50000000000000     0.50000000000000     0.00000000000000
O      O      0.00000000000000     0.50000000000000     0.00000000000000
O      O      0.50000000000000     0.00000000000000     0.00000000000000
O      O      0.37180000000000     0.35130000000000     0.13320000000000
O      O      0.97950000000000     0.62820000000000     0.86680000000000
O      O      0.02050000000000     0.37180000000000     0.13320000000000
O      O      0.35130000000000     0.97950000000000     0.86680000000000
O      O      0.64870000000000     0.02050000000000     0.13320000000000
O      O      0.37180000000000     0.35130000000000     0.86680000000000
O      O      0.62820000000000     0.64870000000000     0.13320000000000
O      O      0.02050000000000     0.37180000000000     0.86680000000000
O      O      0.97950000000000     0.62820000000000     0.13320000000000
O      O      0.64870000000000     0.02050000000000     0.86680000000000
O      O      0.35130000000000     0.97950000000000     0.13320000000000
O      O      0.62820000000000     0.64870000000000     0.86680000000000
O      O      0.04450000000000     0.28900000000000     0.33810000000000
O      O      0.24450000000000     0.95550000000000     0.66190000000000
O      O      0.75550000000000     0.04450000000000     0.33810000000000
O      O      0.28900000000000     0.24450000000000     0.66190000000000
O      O      0.71100000000000     0.75550000000000     0.33810000000000
O      O      0.04450000000000     0.28900000000000     0.66190000000000
O      O      0.95550000000000     0.71100000000000     0.33810000000000
O      O      0.75550000000000     0.04450000000000     0.66190000000000
O      O      0.24450000000000     0.95550000000000     0.33810000000000
O      O      0.71100000000000     0.75550000000000     0.66190000000000
O      O      0.28900000000000     0.24450000000000     0.33810000000000
O      O      0.95550000000000     0.71100000000000     0.66190000000000
O      O      0.36110000000000     0.51470000000000     0.12670000000000
O      O      0.15360000000000     0.63890000000000     0.87330000000000
O      O      0.84640000000000     0.36110000000000     0.12670000000000
O      O      0.51470000000000     0.15360000000000     0.87330000000000
O      O      0.48530000000000     0.84640000000000     0.12670000000000
O      O      0.36110000000000     0.51470000000000     0.87330000000000
O      O      0.63890000000000     0.48530000000000     0.12670000000000
O      O      0.84640000000000     0.36110000000000     0.87330000000000
O      O      0.15360000000000     0.63890000000000     0.12670000000000
O      O      0.48530000000000     0.84640000000000     0.87330000000000
O      O      0.51470000000000     0.15360000000000     0.12670000000000
O      O      0.63890000000000     0.48530000000000     0.87330000000000
O      O      0.32480000000000     0.41500000000000     0.33810000000000
O      O      0.09020000000000     0.67520000000000     0.66190000000000
O      O      0.90980000000000     0.32480000000000     0.33810000000000
O      O      0.41500000000000     0.09020000000000     0.66190000000000
O      O      0.58500000000000     0.90980000000000     0.33810000000000
O      O      0.32480000000000     0.41500000000000     0.66190000000000
O      O      0.67520000000000     0.58500000000000     0.33810000000000
O      O      0.90980000000000     0.32480000000000     0.66190000000000
O      O      0.09020000000000     0.67520000000000     0.33810000000000
O      O      0.58500000000000     0.90980000000000     0.66190000000000
O      O      0.41500000000000     0.09020000000000     0.33810000000000
O      O      0.67520000000000     0.58500000000000     0.66190000000000
O      O      0.07700000000000     0.45980000000000     0.35820000000000
O      O      0.38280000000000     0.92300000000000     0.64180000000000
O      O      0.61720000000000     0.07700000000000     0.35820000000000
O      O      0.45980000000000     0.38280000000000     0.64180000000000
O      O      0.54020000000000     0.61720000000000     0.35820000000000
O      O      0.07700000000000     0.45980000000000     0.64180000000000
O      O      0.92300000000000     0.54020000000000     0.35820000000000
O      O      0.61720000000000     0.07700000000000     0.64180000000000
O      O      0.38280000000000     0.92300000000000     0.35820000000000
O      O      0.54020000000000     0.61720000000000     0.64180000000000
O      O      0.45980000000000     0.38280000000000     0.35820000000000
O      O      0.92300000000000     0.54020000000000     0.64180000000000
O      O      0.22750000000000     0.35860000000000     0.00000000000000
O      O      0.13110000000000     0.77250000000000     0.00000000000000
O      O      0.86890000000000     0.22750000000000     0.00000000000000
O      O      0.35860000000000     0.13110000000000     0.00000000000000
O      O      0.64140000000000     0.86890000000000     0.00000000000000
O      O      0.77250000000000     0.64140000000000     0.00000000000000
O      O      0.18770000000000     0.16050000000000     0.12870000000000
O      O      0.97280000000000     0.81230000000000     0.87130000000000
O      O      0.02720000000000     0.18770000000000     0.12870000000000
O      O      0.16050000000000     0.97280000000000     0.87130000000000
O      O      0.83950000000000     0.02720000000000     0.12870000000000
O      O      0.18770000000000     0.16050000000000     0.87130000000000
O      O      0.81230000000000     0.83950000000000     0.12870000000000
O      O      0.02720000000000     0.18770000000000     0.87130000000000
O      O      0.97280000000000     0.81230000000000     0.12870000000000
O      O      0.83950000000000     0.02720000000000     0.87130000000000
O      O      0.16050000000000     0.97280000000000     0.12870000000000
O      O      0.81230000000000     0.83950000000000     0.87130000000000
O      O      0.20790000000000     0.61260000000000     0.35760000000000
O      O      0.40470000000000     0.79210000000000     0.64240000000000
O      O      0.59530000000000     0.20790000000000     0.35760000000000
O      O      0.61260000000000     0.40470000000000     0.64240000000000
O      O      0.38740000000000     0.59530000000000     0.35760000000000
O      O      0.20790000000000     0.61260000000000     0.64240000000000
O      O      0.79210000000000     0.38740000000000     0.35760000000000
O      O      0.59530000000000     0.20790000000000     0.64240000000000
O      O      0.40470000000000     0.79210000000000     0.35760000000000
O      O      0.38740000000000     0.59530000000000     0.64240000000000
O      O      0.61260000000000     0.40470000000000     0.35760000000000
O      O      0.79210000000000     0.38740000000000     0.64240000000000
O      O      0.22010000000000     0.48500000000000     0.27310000000000
O      O      0.26490000000000     0.77990000000000     0.72690000000000
O      O      0.73510000000000     0.22010000000000     0.27310000000000
O      O      0.48500000000000     0.26490000000000     0.72690000000000
O      O      0.51500000000000     0.73510000000000     0.27310000000000
O      O      0.22010000000000     0.48500000000000     0.72690000000000
O      O      0.77990000000000     0.51500000000000     0.27310000000000
O      O      0.73510000000000     0.22010000000000     0.72690000000000
O      O      0.26490000000000     0.77990000000000     0.27310000000000
O      O      0.51500000000000     0.73510000000000     0.72690000000000
O      O      0.48500000000000     0.26490000000000     0.27310000000000
O      O      0.77990000000000     0.51500000000000     0.72690000000000
O      O      0.50110000000000     0.29310000000000     0.50000000000000
O      O      0.79200000000000     0.49890000000000     0.50000000000000
O      O      0.20800000000000     0.50110000000000     0.50000000000000
O      O      0.29310000000000     0.79200000000000     0.50000000000000
O      O      0.70690000000000     0.20800000000000     0.50000000000000
O      O      0.49890000000000     0.70690000000000     0.50000000000000
O      O      0.17850000000000     0.06810000000000     0.34310000000000
O      O      0.88960000000000     0.82150000000000     0.65690000000000
O      O      0.11040000000000     0.17850000000000     0.34310000000000
O      O      0.06810000000000     0.88960000000000     0.65690000000000
O      O      0.93190000000000     0.11040000000000     0.34310000000000
O      O      0.17850000000000     0.06810000000000     0.65690000000000
O      O      0.82150000000000     0.93190000000000     0.34310000000000
O      O      0.11040000000000     0.17850000000000     0.65690000000000
O      O      0.88960000000000     0.82150000000000     0.34310000000000
O      O      0.93190000000000     0.11040000000000     0.65690000000000
O      O      0.06810000000000     0.88960000000000     0.34310000000000
O      O      0.82150000000000     0.93190000000000     0.65690000000000
F      F      0.33333333000000     0.66666667000000     0.00000000000000
F      F      0.66666666000000     0.33333333000000     0.00000000000000
