data_stdin
_audit_creation_method 'critic2-4f1eba8'
_cell_length_a        13.0560000000
_cell_length_b        13.0560000000
_cell_length_c        12.4800000000
_cell_angle_alpha        90.0000
_cell_angle_beta        90.0000
_cell_angle_gamma       120.0000
_cell_volume          1842.321837
_space_group_crystal_system hexagonal
_space_group_IT_number 177
_space_group_name_H-M_alt 'P622'
_space_group_name_Hall 'P 6 2'
loop_
_space_group_symop_operation_xyz
  'x,y,z'
  'x-y,x,z'
  '-y,x-y,z'
  '-x,-y,z'
  '-x+y,-x,z'
  'y,-x+y,z'
  '-y,-x,-z'
  '-x,-x+y,-z'
  '-x+y,y,-z'
  'y,x,-z'
  'x,x-y,-z'
  'x-y,-y,-z'
loop_
_atom_site_label
_atom_site_type_symbol
_atom_site_fract_x
_atom_site_fract_y
_atom_site_fract_z
Co     Co     0.33333333000000     0.66666667000000     0.50000000000000
Fe     Fe     0.66666667000000     0.33333333000000     0.00000000000000
N      N      0.46590000000000     0.67890000000000     0.41309000000000
C      C      0.57600000000000     0.75910000000000     0.45020000000000
O      O      0.68010000000000     0.46760000000000     0.08770000000000
O      O      0.77340000000000     0.66310000000000     0.09090000000000
C      C      0.67710000000000     0.78200000000000     0.39500000000000
H      H      0.75120000000000     0.83520000000000     0.42260000000000
C      C      0.66780000000000     0.72570000000000     0.29860000000000
H      H      0.73520000000000     0.74180000000000     0.26000000000000
C      C      0.55760000000000     0.64570000000000     0.26110000000000
H      H      0.54900000000000     0.60670000000000     0.19650000000000
C      C      0.46040000000000     0.62390000000000     0.32010000000000
H      H      0.38630000000000     0.56800000000000     0.29460000000000
C      C      0.75260000000000     0.57020000000000     0.05270000000000
