data_stdin
_cell_volume          3831.766489
_symmetry_space_group_name_H-M 'P 1'
_symmetry_Int_Tables_number 1
loop_
_symmetry_equiv_pos_site_id
_symmetry_equiv_pos_as_xyz
1 x,y,z
_cell_length_a         9.1820000000
_cell_length_b         9.1820000000
_cell_length_c        52.4800000000
_cell_angle_alpha        90.0000
_cell_angle_beta        90.0000
_cell_angle_gamma       120.0000
_cell_formula_units_Z 1
loop_
_atom_site_label
_atom_site_type_symbol
_atom_site_fract_x
_atom_site_fract_y
_atom_site_fract_z
Ag     Ag     0.56519000000000     0.71190000000000     0.94365300000000
Ag     Ag     0.28810000000000     0.85329000000000     0.61031966666667
Ag     Ag     0.14671000000000     0.43481000000000     0.27698633333333
Ag     Ag     0.43481000000000     0.28810000000000     0.44365300000000
Ag     Ag     0.71190000000000     0.14671000000000     0.11031966666667
Ag     Ag     0.85329000000000     0.56519000000000     0.77698633333333
Ag     Ag     0.71190000000000     0.56519000000000     0.72301366666667
Ag     Ag     0.85329000000000     0.28810000000000     0.05634700000000
Ag     Ag     0.43481000000000     0.14671000000000     0.38968033333333
Ag     Ag     0.28810000000000     0.43481000000000     0.22301366666667
Ag     Ag     0.14671000000000     0.71190000000000     0.55634700000000
Ag     Ag     0.56519000000000     0.85329000000000     0.88968033333333
S      S      0.34160000000000     0.80430000000000     0.94645000000000
S      S      0.19570000000000     0.53730000000000     0.61311666666667
S      S      0.46270000000000     0.65840000000000     0.27978333333333
S      S      0.65840000000000     0.19570000000000     0.44645000000000
S      S      0.80430000000000     0.46270000000000     0.11311666666667
S      S      0.53730000000000     0.34160000000000     0.77978333333333
S      S      0.80430000000000     0.34160000000000     0.72021666666667
S      S      0.53730000000000     0.19570000000000     0.05355000000000
S      S      0.65840000000000     0.46270000000000     0.38688333333333
S      S      0.19570000000000     0.65840000000000     0.22021666666667
S      S      0.46270000000000     0.80430000000000     0.55355000000000
S      S      0.34160000000000     0.53730000000000     0.88688333333333
Cl     Cl     0.32180000000000     0.35490000000000     0.98048000000000
Cl     Cl     0.64510000000000     0.96690000000000     0.64714666666667
Cl     Cl     0.03310000000000     0.67820000000000     0.31381333333333
Cl     Cl     0.67820000000000     0.64510000000000     0.48048000000000
Cl     Cl     0.35490000000000     0.03310000000000     0.14714666666667
Cl     Cl     0.96690000000000     0.32180000000000     0.81381333333333
Cl     Cl     0.35490000000000     0.32180000000000     0.68618666666667
Cl     Cl     0.96690000000000     0.64510000000000     0.01952000000000
Cl     Cl     0.67820000000000     0.03310000000000     0.35285333333333
Cl     Cl     0.64510000000000     0.67820000000000     0.18618666666667
Cl     Cl     0.03310000000000     0.35490000000000     0.51952000000000
Cl     Cl     0.32180000000000     0.96690000000000     0.85285333333333
O      O      0.49880000000000     0.43360000000000     0.97691000000000
O      O      0.56640000000000     0.06520000000000     0.64357666666667
O      O      0.93480000000000     0.50120000000000     0.31024333333333
O      O      0.50120000000000     0.56640000000000     0.47691000000000
O      O      0.43360000000000     0.93480000000000     0.14357666666667
O      O      0.06520000000000     0.49880000000000     0.81024333333333
O      O      0.43360000000000     0.49880000000000     0.68975666666667
O      O      0.06520000000000     0.56640000000000     0.02309000000000
O      O      0.50120000000000     0.93480000000000     0.35642333333333
O      O      0.56640000000000     0.50120000000000     0.18975666666667
O      O      0.93480000000000     0.43360000000000     0.52309000000000
O      O      0.49880000000000     0.06520000000000     0.85642333333333
O      O      0.27100000000000     0.46220000000000     0.96920000000000
O      O      0.53780000000000     0.80880000000000     0.63586666666667
O      O      0.19120000000000     0.72900000000000     0.30253333333333
O      O      0.72900000000000     0.53780000000000     0.46920000000000
O      O      0.46220000000000     0.19120000000000     0.13586666666667
O      O      0.80880000000000     0.27100000000000     0.80253333333333
O      O      0.46220000000000     0.27100000000000     0.69746666666667
O      O      0.80880000000000     0.53780000000000     0.03080000000000
O      O      0.72900000000000     0.19120000000000     0.36413333333333
O      O      0.53780000000000     0.72900000000000     0.19746666666667
O      O      0.19120000000000     0.46220000000000     0.53080000000000
O      O      0.27100000000000     0.80880000000000     0.86413333333333
O      O      0.28870000000000     0.34170000000000     0.00650000000000
O      O      0.65830000000000     0.94700000000000     0.67316666666667
O      O      0.05300000000000     0.71130000000000     0.33983333333333
O      O      0.71130000000000     0.65830000000000     0.50650000000000
O      O      0.34170000000000     0.05300000000000     0.17316666666667
O      O      0.94700000000000     0.28870000000000     0.83983333333333
O      O      0.34170000000000     0.28870000000000     0.66016666666667
O      O      0.94700000000000     0.65830000000000     0.99350000000000
O      O      0.71130000000000     0.05300000000000     0.32683333333333
O      O      0.65830000000000     0.71130000000000     0.16016666666667
O      O      0.05300000000000     0.34170000000000     0.49350000000000
O      O      0.28870000000000     0.94700000000000     0.82683333333333
O      O      0.24140000000000     0.19500000000000     0.96869000000000
O      O      0.80500000000000     0.04640000000000     0.63535666666667
O      O      0.95360000000000     0.75860000000000     0.30202333333333
O      O      0.75860000000000     0.80500000000000     0.46869000000000
O      O      0.19500000000000     0.95360000000000     0.13535666666667
O      O      0.04640000000000     0.24140000000000     0.80202333333333
O      O      0.19500000000000     0.24140000000000     0.69797666666667
O      O      0.04640000000000     0.80500000000000     0.03131000000000
O      O      0.75860000000000     0.95360000000000     0.36464333333333
O      O      0.80500000000000     0.75860000000000     0.19797666666667
O      O      0.95360000000000     0.19500000000000     0.53131000000000
O      O      0.24140000000000     0.04640000000000     0.86464333333333
N      N      0.69540000000000     0.62080000000000     0.91766000000000
N      N      0.37920000000000     0.07460000000000     0.58432666666667
N      N      0.92540000000000     0.30460000000000     0.25099333333333
N      N      0.30460000000000     0.37920000000000     0.41766000000000
N      N      0.62080000000000     0.92540000000000     0.08432666666667
N      N      0.07460000000000     0.69540000000000     0.75099333333333
N      N      0.62080000000000     0.69540000000000     0.74900666666667
N      N      0.07460000000000     0.37920000000000     0.08234000000000
N      N      0.30460000000000     0.92540000000000     0.41567333333333
N      N      0.37920000000000     0.30460000000000     0.24900666666667
N      N      0.92540000000000     0.62080000000000     0.58234000000000
N      N      0.69540000000000     0.07460000000000     0.91567333333333
N      N      0.64240000000000     0.87650000000000     0.98137000000000
N      N      0.12350000000000     0.76590000000000     0.64803666666667
N      N      0.23410000000000     0.35760000000000     0.31470333333333
N      N      0.35760000000000     0.12350000000000     0.48137000000000
N      N      0.87650000000000     0.23410000000000     0.14803666666667
N      N      0.76590000000000     0.64240000000000     0.81470333333333
N      N      0.87650000000000     0.64240000000000     0.68529666666667
N      N      0.76590000000000     0.12350000000000     0.01863000000000
N      N      0.35760000000000     0.23410000000000     0.35196333333333
N      N      0.12350000000000     0.35760000000000     0.18529666666667
N      N      0.23410000000000     0.87650000000000     0.51863000000000
N      N      0.64240000000000     0.76590000000000     0.85196333333333
C      C      0.86510000000000     0.69820000000000     0.91749000000000
C      C      0.30180000000000     0.16690000000000     0.58415666666667
C      C      0.83310000000000     0.13490000000000     0.25082333333333
C      C      0.13490000000000     0.30180000000000     0.41749000000000
C      C      0.69820000000000     0.83310000000000     0.08415666666667
C      C      0.16690000000000     0.86510000000000     0.75082333333333
C      C      0.69820000000000     0.86510000000000     0.74917666666667
C      C      0.16690000000000     0.30180000000000     0.08251000000000
C      C      0.13490000000000     0.83310000000000     0.41584333333333
C      C      0.30180000000000     0.13490000000000     0.24917666666667
C      C      0.83310000000000     0.69820000000000     0.58251000000000
C      C      0.86510000000000     0.16690000000000     0.91584333333333
C      C      0.95070000000000     0.65320000000000     0.90060000000000
C      C      0.34680000000000     0.29750000000000     0.56726666666667
C      C      0.70250000000000     0.04930000000000     0.23393333333333
C      C      0.04930000000000     0.34680000000000     0.40060000000000
C      C      0.65320000000000     0.70250000000000     0.06726666666667
C      C      0.29750000000000     0.95070000000000     0.73393333333333
C      C      0.65320000000000     0.95070000000000     0.76606666666667
C      C      0.29750000000000     0.34680000000000     0.09940000000000
C      C      0.04930000000000     0.70250000000000     0.43273333333333
C      C      0.34680000000000     0.04930000000000     0.26606666666667
C      C      0.70250000000000     0.65320000000000     0.59940000000000
C      C      0.95070000000000     0.29750000000000     0.93273333333333
H      H      0.07020000000000     0.71160000000000     0.90050000000000
H      H      0.28840000000000     0.35860000000000     0.56716666666667
H      H      0.64140000000000     0.92980000000000     0.23383333333333
H      H      0.92980000000000     0.28840000000000     0.40050000000000
H      H      0.71160000000000     0.64140000000000     0.06716666666667
H      H      0.35860000000000     0.07020000000000     0.73383333333333
H      H      0.71160000000000     0.07020000000000     0.76616666666667
H      H      0.35860000000000     0.28840000000000     0.09950000000000
H      H      0.92980000000000     0.64140000000000     0.43283333333333
H      H      0.28840000000000     0.92980000000000     0.26616666666667
H      H      0.64140000000000     0.71160000000000     0.59950000000000
H      H      0.07020000000000     0.35860000000000     0.93283333333333
C      C      0.86070000000000     0.52170000000000     0.88380000000000
C      C      0.47830000000000     0.33900000000000     0.55046666666667
C      C      0.66100000000000     0.13930000000000     0.21713333333333
C      C      0.13930000000000     0.47830000000000     0.38380000000000
C      C      0.52170000000000     0.66100000000000     0.05046666666667
C      C      0.33900000000000     0.86070000000000     0.71713333333333
C      C      0.52170000000000     0.86070000000000     0.78286666666667
C      C      0.33900000000000     0.47830000000000     0.11620000000000
C      C      0.13930000000000     0.66100000000000     0.44953333333333
C      C      0.47830000000000     0.13930000000000     0.28286666666667
C      C      0.66100000000000     0.52170000000000     0.61620000000000
C      C      0.86070000000000     0.33900000000000     0.94953333333333
H      H      0.91770000000000     0.49030000000000     0.87180000000000
H      H      0.50970000000000     0.42740000000000     0.53846666666667
H      H      0.57260000000000     0.08230000000000     0.20513333333333
H      H      0.08230000000000     0.50970000000000     0.37180000000000
H      H      0.49030000000000     0.57260000000000     0.03846666666667
H      H      0.42740000000000     0.91770000000000     0.70513333333333
H      H      0.49030000000000     0.91770000000000     0.79486666666667
H      H      0.42740000000000     0.50970000000000     0.12820000000000
H      H      0.08230000000000     0.57260000000000     0.46153333333333
H      H      0.50970000000000     0.08230000000000     0.29486666666667
H      H      0.57260000000000     0.49030000000000     0.62820000000000
H      H      0.91770000000000     0.42740000000000     0.96153333333333
C      C      0.68610000000000     0.43630000000000     0.88466000000000
C      C      0.56370000000000     0.24980000000000     0.55132666666667
C      C      0.75020000000000     0.31390000000000     0.21799333333333
C      C      0.31390000000000     0.56370000000000     0.38466000000000
C      C      0.43630000000000     0.75020000000000     0.05132666666667
C      C      0.24980000000000     0.68610000000000     0.71799333333333
C      C      0.43630000000000     0.68610000000000     0.78200666666667
C      C      0.24980000000000     0.56370000000000     0.11534000000000
C      C      0.31390000000000     0.75020000000000     0.44867333333333
C      C      0.56370000000000     0.31390000000000     0.28200666666667
C      C      0.75020000000000     0.43630000000000     0.61534000000000
C      C      0.68610000000000     0.24980000000000     0.94867333333333
H      H      0.62130000000000     0.34180000000000     0.87400000000000
H      H      0.65820000000000     0.27950000000000     0.54066666666667
H      H      0.72050000000000     0.37870000000000     0.20733333333333
H      H      0.37870000000000     0.65820000000000     0.37400000000000
H      H      0.34180000000000     0.72050000000000     0.04066666666667
H      H      0.27950000000000     0.62130000000000     0.70733333333333
H      H      0.34180000000000     0.62130000000000     0.79266666666667
H      H      0.27950000000000     0.65820000000000     0.12600000000000
H      H      0.37870000000000     0.72050000000000     0.45933333333333
H      H      0.65820000000000     0.37870000000000     0.29266666666667
H      H      0.72050000000000     0.34180000000000     0.62600000000000
H      H      0.62130000000000     0.27950000000000     0.95933333333333
C      C      0.60920000000000     0.49290000000000     0.90150000000000
C      C      0.50710000000000     0.11630000000000     0.56816666666667
C      C      0.88370000000000     0.39080000000000     0.23483333333333
C      C      0.39080000000000     0.50710000000000     0.40150000000000
C      C      0.49290000000000     0.88370000000000     0.06816666666667
C      C      0.11630000000000     0.60920000000000     0.73483333333333
C      C      0.49290000000000     0.60920000000000     0.76516666666667
C      C      0.11630000000000     0.50710000000000     0.09850000000000
C      C      0.39080000000000     0.88370000000000     0.43183333333333
C      C      0.50710000000000     0.39080000000000     0.26516666666667
C      C      0.88370000000000     0.49290000000000     0.59850000000000
C      C      0.60920000000000     0.11630000000000     0.93183333333333
C      C      0.42080000000000     0.00790000000000     0.93117000000000
C      C      0.99210000000000     0.41290000000000     0.59783666666667
C      C      0.58710000000000     0.57920000000000     0.26450333333333
C      C      0.57920000000000     0.99210000000000     0.43117000000000
C      C      0.00790000000000     0.58710000000000     0.09783666666667
C      C      0.41290000000000     0.42080000000000     0.76450333333333
C      C      0.00790000000000     0.42080000000000     0.73549666666667
C      C      0.41290000000000     0.99210000000000     0.06883000000000
C      C      0.57920000000000     0.58710000000000     0.40216333333333
C      C      0.99210000000000     0.57920000000000     0.23549666666667
C      C      0.58710000000000     0.00790000000000     0.56883000000000
C      C      0.42080000000000     0.41290000000000     0.90216333333333
H      H      0.38330000000000     0.98980000000000     0.91320000000000
H      H      0.01020000000000     0.39350000000000     0.57986666666667
H      H      0.60650000000000     0.61670000000000     0.24653333333333
H      H      0.61670000000000     0.01020000000000     0.41320000000000
H      H      0.98980000000000     0.60650000000000     0.07986666666667
H      H      0.39350000000000     0.38330000000000     0.74653333333333
H      H      0.98980000000000     0.38330000000000     0.75346666666667
H      H      0.39350000000000     0.01020000000000     0.08680000000000
H      H      0.61670000000000     0.60650000000000     0.42013333333333
H      H      0.01020000000000     0.61670000000000     0.25346666666667
H      H      0.60650000000000     0.98980000000000     0.58680000000000
H      H      0.38330000000000     0.39350000000000     0.92013333333333
H      H      0.37060000000000     0.06870000000000     0.93970000000000
H      H      0.93130000000000     0.30190000000000     0.60636666666667
H      H      0.69810000000000     0.62940000000000     0.27303333333333
H      H      0.62940000000000     0.93130000000000     0.43970000000000
H      H      0.06870000000000     0.69810000000000     0.10636666666667
H      H      0.30190000000000     0.37060000000000     0.77303333333333
H      H      0.06870000000000     0.37060000000000     0.72696666666667
H      H      0.30190000000000     0.93130000000000     0.06030000000000
H      H      0.62940000000000     0.69810000000000     0.39363333333333
H      H      0.93130000000000     0.62940000000000     0.22696666666667
H      H      0.69810000000000     0.06870000000000     0.56030000000000
H      H      0.37060000000000     0.30190000000000     0.89363333333333
C      C      0.36970000000000     0.86310000000000     0.97974000000000
C      C      0.13690000000000     0.50660000000000     0.64640666666667
C      C      0.49340000000000     0.63030000000000     0.31307333333333
C      C      0.63030000000000     0.13690000000000     0.47974000000000
C      C      0.86310000000000     0.49340000000000     0.14640666666667
C      C      0.50660000000000     0.36970000000000     0.81307333333333
C      C      0.86310000000000     0.36970000000000     0.68692666666667
C      C      0.50660000000000     0.13690000000000     0.02026000000000
C      C      0.63030000000000     0.49340000000000     0.35359333333333
C      C      0.13690000000000     0.63030000000000     0.18692666666667
C      C      0.49340000000000     0.86310000000000     0.52026000000000
C      C      0.36970000000000     0.50660000000000     0.85359333333333
H      H      0.33030000000000     0.94460000000000     0.98240000000000
H      H      0.05540000000000     0.38570000000000     0.64906666666667
H      H      0.61430000000000     0.66970000000000     0.31573333333333
H      H      0.66970000000000     0.05540000000000     0.48240000000000
H      H      0.94460000000000     0.61430000000000     0.14906666666667
H      H      0.38570000000000     0.33030000000000     0.81573333333333
H      H      0.94460000000000     0.33030000000000     0.68426666666667
H      H      0.38570000000000     0.05540000000000     0.01760000000000
H      H      0.66970000000000     0.61430000000000     0.35093333333333
H      H      0.05540000000000     0.66970000000000     0.18426666666667
H      H      0.61430000000000     0.94460000000000     0.51760000000000
H      H      0.33030000000000     0.38570000000000     0.85093333333333
H      H      0.29570000000000     0.76170000000000     0.98990000000000
H      H      0.23830000000000     0.53400000000000     0.65656666666667
H      H      0.46600000000000     0.70430000000000     0.32323333333333
H      H      0.70430000000000     0.23830000000000     0.48990000000000
H      H      0.76170000000000     0.46600000000000     0.15656666666667
H      H      0.53400000000000     0.29570000000000     0.82323333333333
H      H      0.76170000000000     0.29570000000000     0.67676666666667
H      H      0.53400000000000     0.23830000000000     0.01010000000000
H      H      0.70430000000000     0.46600000000000     0.34343333333333
H      H      0.23830000000000     0.70430000000000     0.17676666666667
H      H      0.46600000000000     0.76170000000000     0.51010000000000
H      H      0.29570000000000     0.53400000000000     0.84343333333333
C      C      0.54690000000000     0.93960000000000     0.99035000000000
C      C      0.06040000000000     0.60730000000000     0.65701666666667
C      C      0.39270000000000     0.45310000000000     0.32368333333333
C      C      0.45310000000000     0.06040000000000     0.49035000000000
C      C      0.93960000000000     0.39270000000000     0.15701666666667
C      C      0.60730000000000     0.54690000000000     0.82368333333333
C      C      0.93960000000000     0.54690000000000     0.67631666666667
C      C      0.60730000000000     0.06040000000000     0.00965000000000
C      C      0.45310000000000     0.39270000000000     0.34298333333333
C      C      0.06040000000000     0.45310000000000     0.17631666666667
C      C      0.39270000000000     0.93960000000000     0.50965000000000
C      C      0.54690000000000     0.60730000000000     0.84298333333333
C      C      0.79540000000000     0.93660000000000     0.99107000000000
C      C      0.06340000000000     0.85880000000000     0.65773666666667
C      C      0.14120000000000     0.20460000000000     0.32440333333333
C      C      0.20460000000000     0.06340000000000     0.49107000000000
C      C      0.93660000000000     0.14120000000000     0.15773666666667
C      C      0.85880000000000     0.79540000000000     0.82440333333333
C      C      0.93660000000000     0.79540000000000     0.67559666666667
C      C      0.85880000000000     0.06340000000000     0.00893000000000
C      C      0.20460000000000     0.14120000000000     0.34226333333333
C      C      0.06340000000000     0.20460000000000     0.17559666666667
C      C      0.14120000000000     0.93660000000000     0.50893000000000
C      C      0.79540000000000     0.85880000000000     0.84226333333333
H      H      0.86280000000000     0.89090000000000     0.98560000000000
H      H      0.10910000000000     0.97190000000000     0.65226666666667
H      H      0.02810000000000     0.13720000000000     0.31893333333333
H      H      0.13720000000000     0.10910000000000     0.48560000000000
H      H      0.89090000000000     0.02810000000000     0.15226666666667
H      H      0.97190000000000     0.86280000000000     0.81893333333333
H      H      0.89090000000000     0.86280000000000     0.68106666666667
H      H      0.97190000000000     0.10910000000000     0.01440000000000
H      H      0.13720000000000     0.02810000000000     0.34773333333333
H      H      0.10910000000000     0.13720000000000     0.18106666666667
H      H      0.02810000000000     0.89090000000000     0.51440000000000
H      H      0.86280000000000     0.97190000000000     0.84773333333333
C      C      0.95840000000000     0.83720000000000     0.93660000000000
C      C      0.16280000000000     0.12120000000000     0.60326666666667
C      C      0.87880000000000     0.04160000000000     0.26993333333333
C      C      0.04160000000000     0.16280000000000     0.43660000000000
C      C      0.83720000000000     0.87880000000000     0.10326666666667
C      C      0.12120000000000     0.95840000000000     0.76993333333333
C      C      0.83720000000000     0.95840000000000     0.73006666666667
C      C      0.12120000000000     0.16280000000000     0.06340000000000
C      C      0.04160000000000     0.87880000000000     0.39673333333333
C      C      0.16280000000000     0.04160000000000     0.23006666666667
C      C      0.87880000000000     0.83720000000000     0.56340000000000
C      C      0.95840000000000     0.12120000000000     0.89673333333333
H      H      0.89930000000000     0.90040000000000     0.93890000000000
H      H      0.09960000000000     0.99890000000000     0.60556666666667
H      H      0.00110000000000     0.10070000000000     0.27223333333333
H      H      0.10070000000000     0.09960000000000     0.43890000000000
H      H      0.90040000000000     0.00110000000000     0.10556666666667
H      H      0.99890000000000     0.89930000000000     0.77223333333333
H      H      0.90040000000000     0.89930000000000     0.72776666666667
H      H      0.99890000000000     0.09960000000000     0.06110000000000
H      H      0.10070000000000     0.00110000000000     0.39443333333333
H      H      0.09960000000000     0.10070000000000     0.22776666666667
H      H      0.00110000000000     0.90040000000000     0.56110000000000
H      H      0.89930000000000     0.99890000000000     0.89443333333333
H      H      0.07260000000000     0.91290000000000     0.93040000000000
H      H      0.08710000000000     0.15970000000000     0.59706666666667
H      H      0.84030000000000     0.92740000000000     0.26373333333333
H      H      0.92740000000000     0.08710000000000     0.43040000000000
H      H      0.91290000000000     0.84030000000000     0.09706666666667
H      H      0.15970000000000     0.07260000000000     0.76373333333333
H      H      0.91290000000000     0.07260000000000     0.73626666666667
H      H      0.15970000000000     0.08710000000000     0.06960000000000
H      H      0.92740000000000     0.84030000000000     0.40293333333333
H      H      0.08710000000000     0.92740000000000     0.23626666666667
H      H      0.84030000000000     0.91290000000000     0.56960000000000
H      H      0.07260000000000     0.15970000000000     0.90293333333333
H      H      0.96380000000000     0.78850000000000     0.95290000000000
H      H      0.21150000000000     0.17530000000000     0.61956666666667
H      H      0.82470000000000     0.03620000000000     0.28623333333333
H      H      0.03620000000000     0.21150000000000     0.45290000000000
H      H      0.78850000000000     0.82470000000000     0.11956666666667
H      H      0.17530000000000     0.96380000000000     0.78623333333333
H      H      0.78850000000000     0.96380000000000     0.71376666666667
H      H      0.17530000000000     0.21150000000000     0.04710000000000
H      H      0.03620000000000     0.82470000000000     0.38043333333333
H      H      0.21150000000000     0.03620000000000     0.21376666666667
H      H      0.82470000000000     0.78850000000000     0.54710000000000
H      H      0.96380000000000     0.17530000000000     0.88043333333333
