data_stdin
_cell_volume           119.045605
_symmetry_space_group_name_H-M 'P 1'
_symmetry_Int_Tables_number 1
loop_
_symmetry_equiv_pos_site_id
_symmetry_equiv_pos_as_xyz
1 x,y,z
_cell_length_a         5.0130000000
_cell_length_b         5.0130000000
_cell_length_c         5.4700000000
_cell_angle_alpha        90.0000
_cell_angle_beta        90.0000
_cell_angle_gamma       120.0000
_cell_formula_units_Z 1
loop_
_atom_site_label
_atom_site_type_symbol
_atom_site_fract_x
_atom_site_fract_y
_atom_site_fract_z
Si     Si     0.50000000000000     0.50000000000000     0.33333333300000
Si     Si     0.50000000000000     0.00000000000000     0.00000000033333
Si     Si     0.00000000000000     0.50000000000000     0.66666666633333
O      O      0.19700000000000     0.80300000000000     0.83333330000000
O      O      0.19700000000000     0.39400000000000     0.50000003333333
O      O      0.39400000000000     0.19700000000000     0.16666663333333
O      O      0.80300000000000     0.19700000000000     0.83333336666667
O      O      0.60600000000000     0.80300000000000     0.16666670000000
O      O      0.80300000000000     0.60600000000000     0.50000003333333
