data_stdin
_cell_volume           350.688730
_symmetry_space_group_name_H-M 'P 1'
_symmetry_Int_Tables_number 1
loop_
_symmetry_equiv_pos_site_id
_symmetry_equiv_pos_as_xyz
1 x,y,z
_cell_length_a         5.7610000000
_cell_length_b         5.7610000000
_cell_length_c        12.2010000000
_cell_angle_alpha        90.0000
_cell_angle_beta        90.0000
_cell_angle_gamma       120.0000
_cell_formula_units_Z 1
loop_
_atom_site_label
_atom_site_type_symbol
_atom_site_fract_x
_atom_site_fract_y
_atom_site_fract_z
Fe     Fe     0.33333333300000     0.66666667000000     0.25000000000000
Fe     Fe     0.66666666300000     0.33333333300000     0.75000000000000
Nb     Nb     0.00000000000000     0.00000000000000     0.00000000000000
Nb     Nb     0.00000000000000     0.00000000000000     0.50000000000000
Nb     Nb     0.33333333300000     0.66666667000000     0.99890000000000
Nb     Nb     0.33333333300000     0.66666666300000     0.50110000000000
Nb     Nb     0.66666666300000     0.33333333300000     0.49890000000000
Nb     Nb     0.66666667000000     0.33333333300000     0.00110000000000
S      S      0.33260000000000     0.00220000000000     0.37210000000000
S      S      0.33260000000000     0.33040000000000     0.12790000000000
S      S      0.33040000000000     0.33260000000000     0.87210000000000
S      S      0.00220000000000     0.33260000000000     0.62790000000000
S      S      0.99780000000000     0.33040000000000     0.37210000000000
S      S      0.66960000000000     0.00220000000000     0.12790000000000
S      S      0.66740000000000     0.99780000000000     0.87210000000000
S      S      0.66740000000000     0.66960000000000     0.62790000000000
S      S      0.66960000000000     0.66740000000000     0.37210000000000
S      S      0.99780000000000     0.66740000000000     0.12790000000000
S      S      0.00220000000000     0.66960000000000     0.87210000000000
S      S      0.33040000000000     0.99780000000000     0.62790000000000
