data_convert
_cell_volume          1362.892833
_symmetry_space_group_name_H-M 'P 1'
_symmetry_Int_Tables_number 1
loop_
_symmetry_equiv_pos_site_id
_symmetry_equiv_pos_as_xyz
1 x,y,z
_cell_length_a        10.5200000000
_cell_length_b        10.5200000000
_cell_length_c        14.2200000000
_cell_angle_alpha        90.0000
_cell_angle_beta        90.0000
_cell_angle_gamma       120.0000
_cell_formula_units_Z 1
loop_
_atom_site_label
_atom_site_type_symbol
_atom_site_fract_x
_atom_site_fract_y
_atom_site_fract_z
O      O      0.21300000000000     0.94100000000000     0.85900000000000
O      O      0.27200000000000     0.21300000000000     0.85900000000000
O      O      0.05900000000000     0.27200000000000     0.85900000000000
O      O      0.78700000000000     0.05900000000000     0.85900000000000
O      O      0.72800000000000     0.78700000000000     0.85900000000000
O      O      0.94100000000000     0.72800000000000     0.85900000000000
O      O      0.94100000000000     0.21300000000000     0.35900000000000
O      O      0.72800000000000     0.94100000000000     0.35900000000000
O      O      0.78700000000000     0.72800000000000     0.35900000000000
O      O      0.05900000000000     0.78700000000000     0.35900000000000
O      O      0.27200000000000     0.05900000000000     0.35900000000000
O      O      0.21300000000000     0.27200000000000     0.35900000000000
Zn     Zn     0.00000000000000     0.50000000000000     0.25000000000000
Zn     Zn     0.50000000000000     0.00000000000000     0.25000000000000
Zn     Zn     0.50000000000000     0.50000000000000     0.25000000000000
Zn     Zn     0.50000000000000     0.00000000000000     0.75000000000000
Zn     Zn     0.50000000000000     0.50000000000000     0.75000000000000
Zn     Zn     0.00000000000000     0.50000000000000     0.75000000000000
O      O      0.49500000000000     0.14200000000000     0.83500000000000
O      O      0.35300000000000     0.49500000000000     0.83500000000000
O      O      0.85800000000000     0.35300000000000     0.83500000000000
O      O      0.50500000000000     0.85800000000000     0.83500000000000
O      O      0.64700000000000     0.50500000000000     0.83500000000000
O      O      0.14200000000000     0.64700000000000     0.83500000000000
O      O      0.14200000000000     0.49500000000000     0.33500000000000
O      O      0.64700000000000     0.14200000000000     0.33500000000000
O      O      0.50500000000000     0.64700000000000     0.33500000000000
O      O      0.85800000000000     0.50500000000000     0.33500000000000
O      O      0.35300000000000     0.85800000000000     0.33500000000000
O      O      0.49500000000000     0.35300000000000     0.33500000000000
O      O      0.35500000000000     0.09600000000000     0.00000000000000
O      O      0.25900000000000     0.35500000000000     0.00000000000000
O      O      0.90400000000000     0.25900000000000     0.00000000000000
O      O      0.64500000000000     0.90400000000000     0.00000000000000
O      O      0.74100000000000     0.64500000000000     0.00000000000000
O      O      0.09600000000000     0.74100000000000     0.00000000000000
O      O      0.09600000000000     0.35500000000000     0.50000000000000
O      O      0.74100000000000     0.09600000000000     0.50000000000000
O      O      0.64500000000000     0.74100000000000     0.50000000000000
O      O      0.90400000000000     0.64500000000000     0.50000000000000
O      O      0.25900000000000     0.90400000000000     0.50000000000000
O      O      0.35500000000000     0.25900000000000     0.50000000000000
O      O      0.21200000000000     0.93900000000000     0.14000000000000
O      O      0.27300000000000     0.21200000000000     0.14000000000000
O      O      0.06100000000000     0.27300000000000     0.14000000000000
O      O      0.78800000000000     0.06100000000000     0.14000000000000
O      O      0.72700000000000     0.78800000000000     0.14000000000000
O      O      0.93900000000000     0.72700000000000     0.14000000000000
O      O      0.93900000000000     0.21200000000000     0.64000000000000
O      O      0.72700000000000     0.93900000000000     0.64000000000000
O      O      0.78800000000000     0.72700000000000     0.64000000000000
O      O      0.06100000000000     0.78800000000000     0.64000000000000
O      O      0.27300000000000     0.06100000000000     0.64000000000000
O      O      0.21200000000000     0.27300000000000     0.64000000000000
Mn     Mn     0.33333333000000     0.66666667000000     0.26200000000000
Mn     Mn     0.66666666000000     0.33333333000000     0.26200000000000
Mn     Mn     0.66666667000000     0.33333333000000     0.76200000000000
Mn     Mn     0.33333334000000     0.66666667000000     0.76200000000000
O      O      0.49000000000000     0.14600000000000     0.16700000000000
O      O      0.34400000000000     0.49000000000000     0.16700000000000
O      O      0.85400000000000     0.34400000000000     0.16700000000000
O      O      0.51000000000000     0.85400000000000     0.16700000000000
O      O      0.65600000000000     0.51000000000000     0.16700000000000
O      O      0.14600000000000     0.65600000000000     0.16700000000000
O      O      0.14600000000000     0.49000000000000     0.66700000000000
O      O      0.65600000000000     0.14600000000000     0.66700000000000
O      O      0.51000000000000     0.65600000000000     0.66700000000000
O      O      0.85400000000000     0.51000000000000     0.66700000000000
O      O      0.34400000000000     0.85400000000000     0.66700000000000
O      O      0.49000000000000     0.34400000000000     0.66700000000000
Si     Si     0.33800000000000     0.10800000000000     0.88700000000000
Si     Si     0.23000000000000     0.33800000000000     0.88700000000000
Si     Si     0.89200000000000     0.23000000000000     0.88700000000000
Si     Si     0.66200000000000     0.89200000000000     0.88700000000000
Si     Si     0.77000000000000     0.66200000000000     0.88700000000000
Si     Si     0.10800000000000     0.77000000000000     0.88700000000000
Si     Si     0.10800000000000     0.33800000000000     0.38700000000000
Si     Si     0.77000000000000     0.10800000000000     0.38700000000000
Si     Si     0.66200000000000     0.77000000000000     0.38700000000000
Si     Si     0.89200000000000     0.66200000000000     0.38700000000000
Si     Si     0.23000000000000     0.89200000000000     0.38700000000000
Si     Si     0.33800000000000     0.23000000000000     0.38700000000000
Si     Si     0.34600000000000     0.10300000000000     0.11600000000000
Si     Si     0.24300000000000     0.34600000000000     0.11600000000000
Si     Si     0.89700000000000     0.24300000000000     0.11600000000000
Si     Si     0.65400000000000     0.89700000000000     0.11600000000000
Si     Si     0.75700000000000     0.65400000000000     0.11600000000000
Si     Si     0.10300000000000     0.75700000000000     0.11600000000000
Si     Si     0.10300000000000     0.34600000000000     0.61600000000000
Si     Si     0.75700000000000     0.10300000000000     0.61600000000000
Si     Si     0.65400000000000     0.75700000000000     0.61600000000000
Si     Si     0.89700000000000     0.65400000000000     0.61600000000000
Si     Si     0.24300000000000     0.89700000000000     0.61600000000000
Si     Si     0.34600000000000     0.24300000000000     0.61600000000000
K      K      0.00000000000000     0.00000000000000     0.22700000000000
K      K      0.00000000000000     0.00000000000000     0.72700000000000
