data_stdin
_cell_volume          4392.121675
_symmetry_space_group_name_H-M 'P 1'
_symmetry_Int_Tables_number 1
loop_
_symmetry_equiv_pos_site_id
_symmetry_equiv_pos_as_xyz
1 x,y,z
_cell_length_a        26.1210000000
_cell_length_b        26.1210000000
_cell_length_c         7.4330000000
_cell_angle_alpha        90.0000
_cell_angle_beta        90.0000
_cell_angle_gamma       120.0000
_cell_formula_units_Z 1
loop_
_atom_site_label
_atom_site_type_symbol
_atom_site_fract_x
_atom_site_fract_y
_atom_site_fract_z
S      S      0.71170000000000     0.28100000000000     0.36110000000000
S      S      0.71900000000000     0.43070000000000     0.36110000000000
S      S      0.56930000000000     0.28830000000000     0.36110000000000
S      S      0.28830000000000     0.71900000000000     0.36110000000000
S      S      0.28100000000000     0.56930000000000     0.36110000000000
S      S      0.43070000000000     0.71170000000000     0.36110000000000
S      S      0.28100000000000     0.71170000000000     0.86110000000000
S      S      0.28830000000000     0.56930000000000     0.86110000000000
S      S      0.43070000000000     0.71900000000000     0.86110000000000
S      S      0.71900000000000     0.28830000000000     0.86110000000000
S      S      0.71170000000000     0.43070000000000     0.86110000000000
S      S      0.56930000000000     0.28100000000000     0.86110000000000
S      S      0.59900000000000     0.01410000000000     0.19250000000000
S      S      0.98590000000000     0.58490000000000     0.19250000000000
S      S      0.41510000000000     0.40100000000000     0.19250000000000
S      S      0.40100000000000     0.98590000000000     0.19250000000000
S      S      0.01410000000000     0.41510000000000     0.19250000000000
S      S      0.58490000000000     0.59900000000000     0.19250000000000
S      S      0.01410000000000     0.59900000000000     0.69250000000000
S      S      0.40100000000000     0.41510000000000     0.69250000000000
S      S      0.58490000000000     0.98590000000000     0.69250000000000
S      S      0.98590000000000     0.40100000000000     0.69250000000000
S      S      0.59900000000000     0.58490000000000     0.69250000000000
S      S      0.41510000000000     0.01410000000000     0.69250000000000
S      S      0.86570000000000     0.16270000000000     0.36700000000000
S      S      0.83730000000000     0.70300000000000     0.36700000000000
S      S      0.29700000000000     0.13430000000000     0.36700000000000
S      S      0.13430000000000     0.83730000000000     0.36700000000000
S      S      0.16270000000000     0.29700000000000     0.36700000000000
S      S      0.70300000000000     0.86570000000000     0.36700000000000
S      S      0.16270000000000     0.86570000000000     0.86700000000000
S      S      0.13430000000000     0.29700000000000     0.86700000000000
S      S      0.70300000000000     0.83730000000000     0.86700000000000
S      S      0.83730000000000     0.13430000000000     0.86700000000000
S      S      0.86570000000000     0.70300000000000     0.86700000000000
S      S      0.29700000000000     0.16270000000000     0.86700000000000
S      S      0.96480000000000     0.11580000000000     0.06000000000000
S      S      0.88420000000000     0.84900000000000     0.06000000000000
S      S      0.15100000000000     0.03520000000000     0.06000000000000
S      S      0.03520000000000     0.88420000000000     0.06000000000000
S      S      0.11580000000000     0.15100000000000     0.06000000000000
S      S      0.84900000000000     0.96480000000000     0.06000000000000
S      S      0.11580000000000     0.96480000000000     0.56000000000000
S      S      0.03520000000000     0.15100000000000     0.56000000000000
S      S      0.84900000000000     0.88420000000000     0.56000000000000
S      S      0.88420000000000     0.03520000000000     0.56000000000000
S      S      0.96480000000000     0.84900000000000     0.56000000000000
S      S      0.15100000000000     0.11580000000000     0.56000000000000
C      C      0.77900000000000     0.17970000000000     0.44700000000000
C      C      0.82030000000000     0.59930000000000     0.44700000000000
C      C      0.40070000000000     0.22100000000000     0.44700000000000
C      C      0.22100000000000     0.82030000000000     0.44700000000000
C      C      0.17970000000000     0.40070000000000     0.44700000000000
C      C      0.59930000000000     0.77900000000000     0.44700000000000
C      C      0.17970000000000     0.77900000000000     0.94700000000000
C      C      0.22100000000000     0.40070000000000     0.94700000000000
C      C      0.59930000000000     0.82030000000000     0.94700000000000
C      C      0.82030000000000     0.22100000000000     0.94700000000000
C      C      0.77900000000000     0.59930000000000     0.94700000000000
C      C      0.40070000000000     0.17970000000000     0.94700000000000
C      C      0.74330000000000     0.20530000000000     0.44800000000000
C      C      0.79470000000000     0.53800000000000     0.44800000000000
C      C      0.46200000000000     0.25670000000000     0.44800000000000
C      C      0.25670000000000     0.79470000000000     0.44800000000000
C      C      0.20530000000000     0.46200000000000     0.44800000000000
C      C      0.53800000000000     0.74330000000000     0.44800000000000
C      C      0.20530000000000     0.74330000000000     0.94800000000000
C      C      0.25670000000000     0.46200000000000     0.94800000000000
C      C      0.53800000000000     0.79470000000000     0.94800000000000
C      C      0.79470000000000     0.25670000000000     0.94800000000000
C      C      0.74330000000000     0.53800000000000     0.94800000000000
C      C      0.46200000000000     0.20530000000000     0.94800000000000
C      C      0.68440000000000     0.17310000000000     0.40500000000000
C      C      0.82690000000000     0.51130000000000     0.40500000000000
C      C      0.48870000000000     0.31560000000000     0.40500000000000
C      C      0.31560000000000     0.82690000000000     0.40500000000000
C      C      0.17310000000000     0.48870000000000     0.40500000000000
C      C      0.51130000000000     0.68440000000000     0.40500000000000
C      C      0.17310000000000     0.68440000000000     0.90500000000000
C      C      0.31560000000000     0.48870000000000     0.90500000000000
C      C      0.51130000000000     0.82690000000000     0.90500000000000
C      C      0.82690000000000     0.31560000000000     0.90500000000000
C      C      0.68440000000000     0.51130000000000     0.90500000000000
C      C      0.48870000000000     0.17310000000000     0.90500000000000
C      C      0.65920000000000     0.11340000000000     0.36900000000000
C      C      0.88660000000000     0.54580000000000     0.36900000000000
C      C      0.45420000000000     0.34080000000000     0.36900000000000
C      C      0.34080000000000     0.88660000000000     0.36900000000000
C      C      0.11340000000000     0.45420000000000     0.36900000000000
C      C      0.54580000000000     0.65920000000000     0.36900000000000
C      C      0.11340000000000     0.65920000000000     0.86900000000000
C      C      0.34080000000000     0.45420000000000     0.86900000000000
C      C      0.54580000000000     0.88660000000000     0.86900000000000
C      C      0.88660000000000     0.34080000000000     0.86900000000000
C      C      0.65920000000000     0.54580000000000     0.86900000000000
C      C      0.45420000000000     0.11340000000000     0.86900000000000
C      C      0.69400000000000     0.08590000000000     0.36700000000000
C      C      0.91410000000000     0.60810000000000     0.36700000000000
C      C      0.39190000000000     0.30600000000000     0.36700000000000
C      C      0.30600000000000     0.91410000000000     0.36700000000000
C      C      0.08590000000000     0.39190000000000     0.36700000000000
C      C      0.60810000000000     0.69400000000000     0.36700000000000
C      C      0.08590000000000     0.69400000000000     0.86700000000000
C      C      0.30600000000000     0.39190000000000     0.86700000000000
C      C      0.60810000000000     0.91410000000000     0.86700000000000
C      C      0.91410000000000     0.30600000000000     0.86700000000000
C      C      0.69400000000000     0.60810000000000     0.86700000000000
C      C      0.39190000000000     0.08590000000000     0.86700000000000
C      C      0.75240000000000     0.11850000000000     0.40700000000000
C      C      0.88150000000000     0.63390000000000     0.40700000000000
C      C      0.36610000000000     0.24760000000000     0.40700000000000
C      C      0.24760000000000     0.88150000000000     0.40700000000000
C      C      0.11850000000000     0.36610000000000     0.40700000000000
C      C      0.63390000000000     0.75240000000000     0.40700000000000
C      C      0.11850000000000     0.75240000000000     0.90700000000000
C      C      0.24760000000000     0.36610000000000     0.90700000000000
C      C      0.63390000000000     0.88150000000000     0.90700000000000
C      C      0.88150000000000     0.24760000000000     0.90700000000000
C      C      0.75240000000000     0.63390000000000     0.90700000000000
C      C      0.36610000000000     0.11850000000000     0.90700000000000
C      C      0.83980000000000     0.21190000000000     0.42700000000000
C      C      0.78810000000000     0.62790000000000     0.42700000000000
C      C      0.37210000000000     0.16020000000000     0.42700000000000
C      C      0.16020000000000     0.78810000000000     0.42700000000000
C      C      0.21190000000000     0.37210000000000     0.42700000000000
C      C      0.62790000000000     0.83980000000000     0.42700000000000
C      C      0.21190000000000     0.83980000000000     0.92700000000000
C      C      0.16020000000000     0.37210000000000     0.92700000000000
C      C      0.62790000000000     0.78810000000000     0.92700000000000
C      C      0.78810000000000     0.16020000000000     0.92700000000000
C      C      0.83980000000000     0.62790000000000     0.92700000000000
C      C      0.37210000000000     0.21190000000000     0.92700000000000
C      C      0.86720000000000     0.27520000000000     0.41800000000000
C      C      0.72480000000000     0.59200000000000     0.41800000000000
C      C      0.40800000000000     0.13280000000000     0.41800000000000
C      C      0.13280000000000     0.72480000000000     0.41800000000000
C      C      0.27520000000000     0.40800000000000     0.41800000000000
C      C      0.59200000000000     0.86720000000000     0.41800000000000
C      C      0.27520000000000     0.86720000000000     0.91800000000000
C      C      0.13280000000000     0.40800000000000     0.91800000000000
C      C      0.59200000000000     0.72480000000000     0.91800000000000
C      C      0.72480000000000     0.13280000000000     0.91800000000000
C      C      0.86720000000000     0.59200000000000     0.91800000000000
C      C      0.40800000000000     0.27520000000000     0.91800000000000
C      C      0.82990000000000     0.30150000000000     0.41900000000000
C      C      0.69850000000000     0.52840000000000     0.41900000000000
C      C      0.47160000000000     0.17010000000000     0.41900000000000
C      C      0.17010000000000     0.69850000000000     0.41900000000000
C      C      0.30150000000000     0.47160000000000     0.41900000000000
C      C      0.52840000000000     0.82990000000000     0.41900000000000
C      C      0.30150000000000     0.82990000000000     0.91900000000000
C      C      0.17010000000000     0.47160000000000     0.91900000000000
C      C      0.52840000000000     0.69850000000000     0.91900000000000
C      C      0.69850000000000     0.17010000000000     0.91900000000000
C      C      0.82990000000000     0.52840000000000     0.91900000000000
C      C      0.47160000000000     0.30150000000000     0.91900000000000
C      C      0.76930000000000     0.26610000000000     0.42400000000000
C      C      0.73390000000000     0.50320000000000     0.42400000000000
C      C      0.49680000000000     0.23070000000000     0.42400000000000
C      C      0.23070000000000     0.73390000000000     0.42400000000000
C      C      0.26610000000000     0.49680000000000     0.42400000000000
C      C      0.50320000000000     0.76930000000000     0.42400000000000
C      C      0.26610000000000     0.76930000000000     0.92400000000000
C      C      0.23070000000000     0.49680000000000     0.92400000000000
C      C      0.50320000000000     0.73390000000000     0.92400000000000
C      C      0.73390000000000     0.23070000000000     0.92400000000000
C      C      0.76930000000000     0.50320000000000     0.92400000000000
C      C      0.49680000000000     0.26610000000000     0.92400000000000
C      C      0.65660000000000     0.20320000000000     0.34600000000000
C      C      0.79680000000000     0.45340000000000     0.34600000000000
C      C      0.54660000000000     0.34340000000000     0.34600000000000
C      C      0.34340000000000     0.79680000000000     0.34600000000000
C      C      0.20320000000000     0.54660000000000     0.34600000000000
C      C      0.45340000000000     0.65660000000000     0.34600000000000
C      C      0.20320000000000     0.65660000000000     0.84600000000000
C      C      0.34340000000000     0.54660000000000     0.84600000000000
C      C      0.45340000000000     0.79680000000000     0.84600000000000
C      C      0.79680000000000     0.34340000000000     0.84600000000000
C      C      0.65660000000000     0.45340000000000     0.84600000000000
C      C      0.54660000000000     0.20320000000000     0.84600000000000
C      C      0.60370000000000     0.17540000000000     0.25900000000000
C      C      0.82460000000000     0.42830000000000     0.25900000000000
C      C      0.57170000000000     0.39630000000000     0.25900000000000
C      C      0.39630000000000     0.82460000000000     0.25900000000000
C      C      0.17540000000000     0.57170000000000     0.25900000000000
C      C      0.42830000000000     0.60370000000000     0.25900000000000
C      C      0.17540000000000     0.60370000000000     0.75900000000000
C      C      0.39630000000000     0.57170000000000     0.75900000000000
C      C      0.42830000000000     0.82460000000000     0.75900000000000
C      C      0.82460000000000     0.39630000000000     0.75900000000000
C      C      0.60370000000000     0.42830000000000     0.75900000000000
C      C      0.57170000000000     0.17540000000000     0.75900000000000
C      C      0.57690000000000     0.11310000000000     0.21900000000000
C      C      0.88690000000000     0.46380000000000     0.21900000000000
C      C      0.53620000000000     0.42310000000000     0.21900000000000
C      C      0.42310000000000     0.88690000000000     0.21900000000000
C      C      0.11310000000000     0.53620000000000     0.21900000000000
C      C      0.46380000000000     0.57690000000000     0.21900000000000
C      C      0.11310000000000     0.57690000000000     0.71900000000000
C      C      0.42310000000000     0.53620000000000     0.71900000000000
C      C      0.46380000000000     0.88690000000000     0.71900000000000
C      C      0.88690000000000     0.42310000000000     0.71900000000000
C      C      0.57690000000000     0.46380000000000     0.71900000000000
C      C      0.53620000000000     0.11310000000000     0.71900000000000
C      C      0.60760000000000     0.08290000000000     0.27300000000000
C      C      0.91710000000000     0.52470000000000     0.27300000000000
C      C      0.47530000000000     0.39240000000000     0.27300000000000
C      C      0.39240000000000     0.91710000000000     0.27300000000000
C      C      0.08290000000000     0.47530000000000     0.27300000000000
C      C      0.52470000000000     0.60760000000000     0.27300000000000
C      C      0.08290000000000     0.60760000000000     0.77300000000000
C      C      0.39240000000000     0.47530000000000     0.77300000000000
C      C      0.52470000000000     0.91710000000000     0.77300000000000
C      C      0.91710000000000     0.39240000000000     0.77300000000000
C      C      0.60760000000000     0.52470000000000     0.77300000000000
C      C      0.47530000000000     0.08290000000000     0.77300000000000
C      C      0.67140000000000     0.03350000000000     0.27300000000000
C      C      0.96650000000000     0.63790000000000     0.27300000000000
C      C      0.36210000000000     0.32860000000000     0.27300000000000
C      C      0.32860000000000     0.96650000000000     0.27300000000000
C      C      0.03350000000000     0.36210000000000     0.27300000000000
C      C      0.63790000000000     0.67140000000000     0.27300000000000
C      C      0.03350000000000     0.67140000000000     0.77300000000000
C      C      0.32860000000000     0.36210000000000     0.77300000000000
C      C      0.63790000000000     0.96650000000000     0.77300000000000
C      C      0.96650000000000     0.32860000000000     0.77300000000000
C      C      0.67140000000000     0.63790000000000     0.77300000000000
C      C      0.36210000000000     0.03350000000000     0.77300000000000
C      C      0.70880000000000     0.01100000000000     0.23300000000000
C      C      0.98900000000000     0.69780000000000     0.23300000000000
C      C      0.30220000000000     0.29120000000000     0.23300000000000
C      C      0.29120000000000     0.98900000000000     0.23300000000000
C      C      0.01100000000000     0.30220000000000     0.23300000000000
C      C      0.69780000000000     0.70880000000000     0.23300000000000
C      C      0.01100000000000     0.70880000000000     0.73300000000000
C      C      0.29120000000000     0.30220000000000     0.73300000000000
C      C      0.69780000000000     0.98900000000000     0.73300000000000
C      C      0.98900000000000     0.29120000000000     0.73300000000000
C      C      0.70880000000000     0.69780000000000     0.73300000000000
C      C      0.30220000000000     0.01100000000000     0.73300000000000
C      C      0.76910000000000     0.04400000000000     0.27600000000000
C      C      0.95600000000000     0.72510000000000     0.27600000000000
C      C      0.27490000000000     0.23090000000000     0.27600000000000
C      C      0.23090000000000     0.95600000000000     0.27600000000000
C      C      0.04400000000000     0.27490000000000     0.27600000000000
C      C      0.72510000000000     0.76910000000000     0.27600000000000
C      C      0.04400000000000     0.76910000000000     0.77600000000000
C      C      0.23090000000000     0.27490000000000     0.77600000000000
C      C      0.72510000000000     0.95600000000000     0.77600000000000
C      C      0.95600000000000     0.23090000000000     0.77600000000000
C      C      0.76910000000000     0.72510000000000     0.77600000000000
C      C      0.27490000000000     0.04400000000000     0.77600000000000
C      C      0.79180000000000     0.10060000000000     0.35400000000000
C      C      0.89940000000000     0.69120000000000     0.35400000000000
C      C      0.30880000000000     0.20820000000000     0.35400000000000
C      C      0.20820000000000     0.89940000000000     0.35400000000000
C      C      0.10060000000000     0.30880000000000     0.35400000000000
C      C      0.69120000000000     0.79180000000000     0.35400000000000
C      C      0.10060000000000     0.79180000000000     0.85400000000000
C      C      0.20820000000000     0.30880000000000     0.85400000000000
C      C      0.69120000000000     0.89940000000000     0.85400000000000
C      C      0.89940000000000     0.20820000000000     0.85400000000000
C      C      0.79180000000000     0.69120000000000     0.85400000000000
C      C      0.30880000000000     0.10060000000000     0.85400000000000
C      C      0.01820000000000     0.05970000000000     0.15600000000000
C      C      0.94030000000000     0.95850000000000     0.15600000000000
C      C      0.04150000000000     0.98180000000000     0.15600000000000
C      C      0.98180000000000     0.94030000000000     0.15600000000000
C      C      0.05970000000000     0.04150000000000     0.15600000000000
C      C      0.95850000000000     0.01820000000000     0.15600000000000
C      C      0.05970000000000     0.01820000000000     0.65600000000000
C      C      0.98180000000000     0.04150000000000     0.65600000000000
C      C      0.95850000000000     0.94030000000000     0.65600000000000
C      C      0.94030000000000     0.98180000000000     0.65600000000000
C      C      0.01820000000000     0.95850000000000     0.65600000000000
C      C      0.04150000000000     0.05970000000000     0.65600000000000
C      C      0.03530000000000     0.11650000000000     0.09600000000000
C      C      0.88350000000000     0.91880000000000     0.09600000000000
C      C      0.08120000000000     0.96470000000000     0.09600000000000
C      C      0.96470000000000     0.88350000000000     0.09600000000000
C      C      0.11650000000000     0.08120000000000     0.09600000000000
C      C      0.91880000000000     0.03530000000000     0.09600000000000
C      C      0.11650000000000     0.03530000000000     0.59600000000000
C      C      0.96470000000000     0.08120000000000     0.59600000000000
C      C      0.91880000000000     0.88350000000000     0.59600000000000
C      C      0.88350000000000     0.96470000000000     0.59600000000000
C      C      0.03530000000000     0.91880000000000     0.59600000000000
C      C      0.08120000000000     0.11650000000000     0.59600000000000
C      C      0.99800000000000     0.13900000000000     0.04200000000000
C      C      0.86100000000000     0.85900000000000     0.04200000000000
C      C      0.14100000000000     0.00200000000000     0.04200000000000
C      C      0.00200000000000     0.86100000000000     0.04200000000000
C      C      0.13900000000000     0.14100000000000     0.04200000000000
C      C      0.85900000000000     0.99800000000000     0.04200000000000
C      C      0.13900000000000     0.99800000000000     0.54200000000000
C      C      0.00200000000000     0.14100000000000     0.54200000000000
C      C      0.85900000000000     0.86100000000000     0.54200000000000
C      C      0.86100000000000     0.00200000000000     0.54200000000000
C      C      0.99800000000000     0.85900000000000     0.54200000000000
C      C      0.14100000000000     0.13900000000000     0.54200000000000
C      C      0.93400000000000     0.08500000000000     0.06300000000000
C      C      0.91500000000000     0.84900000000000     0.06300000000000
C      C      0.15100000000000     0.06600000000000     0.06300000000000
C      C      0.06600000000000     0.91500000000000     0.06300000000000
C      C      0.08500000000000     0.15100000000000     0.06300000000000
C      C      0.84900000000000     0.93400000000000     0.06300000000000
C      C      0.08500000000000     0.93400000000000     0.56300000000000
C      C      0.06600000000000     0.15100000000000     0.56300000000000
C      C      0.84900000000000     0.91500000000000     0.56300000000000
C      C      0.91500000000000     0.06600000000000     0.56300000000000
C      C      0.93400000000000     0.84900000000000     0.56300000000000
C      C      0.15100000000000     0.08500000000000     0.56300000000000
