data_stdin
_cell_volume           389.782155
_symmetry_space_group_name_H-M 'P 1'
_symmetry_Int_Tables_number 1
loop_
_symmetry_equiv_pos_site_id
_symmetry_equiv_pos_as_xyz
1 x,y,z
_cell_length_a         7.8200000000
_cell_length_b         7.8200000000
_cell_length_c         7.3600000000
_cell_angle_alpha        90.0000
_cell_angle_beta        90.0000
_cell_angle_gamma       120.0000
_cell_formula_units_Z 1
loop_
_atom_site_label
_atom_site_type_symbol
_atom_site_fract_x
_atom_site_fract_y
_atom_site_fract_z
O      O      0.33333333300000     0.00000000000000     0.06250000000000
O      O      0.66666666700000     0.66666666700000     0.06250000000000
O      O      0.33333333300000     0.33333333300000     0.56250000000000
O      O      0.00000000000000     0.66666666700000     0.56250000000000
O      O      0.00000000000000     0.33333333300000     0.06250000000000
O      O      0.66666666700000     0.00000000000000     0.56250000000000
O      O      0.66666666700000     0.00000000000000     0.93750000000000
O      O      0.33333333300000     0.33333333300000     0.93750000000000
O      O      0.66666666700000     0.66666666700000     0.43750000000000
O      O      0.00000000000000     0.33333333300000     0.43750000000000
O      O      0.00000000000000     0.66666666700000     0.93750000000000
O      O      0.33333333300000     0.00000000000000     0.43750000000000
H      H      0.33333333300000     0.00000000000000     0.17400000000000
H      H      0.66666666700000     0.66666666700000     0.17400000000000
H      H      0.33333333300000     0.33333333300000     0.67400000000000
H      H      0.00000000000000     0.66666666700000     0.67400000000000
H      H      0.00000000000000     0.33333333300000     0.17400000000000
H      H      0.66666666700000     0.00000000000000     0.67400000000000
H      H      0.43800000000000     0.00000000000000     0.02600000000000
H      H      0.56200000000000     0.56200000000000     0.02600000000000
H      H      0.43800000000000     0.43800000000000     0.52600000000000
H      H      0.00000000000000     0.56200000000000     0.52600000000000
H      H      0.00000000000000     0.43800000000000     0.02600000000000
H      H      0.56200000000000     0.00000000000000     0.52600000000000
H      H      0.77200000000000     0.10500000000000     0.97500000000000
H      H      0.22800000000000     0.33300000000000     0.97500000000000
H      H      0.66700000000000     0.77200000000000     0.47500000000000
H      H      0.89500000000000     0.22800000000000     0.47500000000000
H      H      0.89500000000000     0.66700000000000     0.97500000000000
H      H      0.66700000000000     0.89500000000000     0.97500000000000
H      H      0.22800000000000     0.89500000000000     0.47500000000000
H      H      0.77200000000000     0.66700000000000     0.47500000000000
H      H      0.33300000000000     0.22800000000000     0.97500000000000
H      H      0.10500000000000     0.77200000000000     0.97500000000000
H      H      0.10500000000000     0.33300000000000     0.47500000000000
H      H      0.33300000000000     0.10500000000000     0.47500000000000
