data_stdin
_cell_volume            78.410699
_symmetry_space_group_name_H-M 'P 1'
_symmetry_Int_Tables_number 1
loop_
_symmetry_equiv_pos_site_id
_symmetry_equiv_pos_as_xyz
1 x,y,z
_cell_length_a         3.8110000000
_cell_length_b         3.8110000000
_cell_length_c         6.2340000000
_cell_angle_alpha        90.0000
_cell_angle_beta        90.0000
_cell_angle_gamma       120.0000
_cell_formula_units_Z 1
loop_
_atom_site_label
_atom_site_type_symbol
_atom_site_fract_x
_atom_site_fract_y
_atom_site_fract_z
Zn     Zn     0.33333000000000     0.66667000000000     0.00000000000000
Zn     Zn     0.66667000000000     0.33334000000000     0.50000000000000
S      S      0.33333000000000     0.66667000000000     0.38500000000000
S      S      0.66667000000000     0.33334000000000     0.88500000000000
