data_stdin
_audit_creation_method 'critic2-4f1eba8'
_cell_length_a        43.0069000000
_cell_length_b        43.0069000000
_cell_length_c        43.0069000000
_cell_angle_alpha        90.0000
_cell_angle_beta        90.0000
_cell_angle_gamma        90.0000
_cell_volume         79545.280442
_space_group_crystal_system cubic
_space_group_IT_number 195
_space_group_name_H-M_alt 'P23'
_space_group_name_Hall 'P 2 2 3'
loop_
_space_group_symop_operation_xyz
  'x,y,z'
  '-x,-y,z'
  'x,-y,-z'
  '-x,y,-z'
  'z,x,y'
  'z,-x,-y'
  '-z,x,-y'
  '-z,-x,y'
  'y,z,x'
  '-y,z,-x'
  '-y,-z,x'
  'y,-z,-x'
loop_
_atom_site_label
_atom_site_type_symbol
_atom_site_fract_x
_atom_site_fract_y
_atom_site_fract_z
Gd     Gd     0.26020000000000     0.23994000000000     0.09803000000000
Gd     Gd     0.27661000000000     0.17581000000000     0.03755000000000
Gd     Gd     0.20564000000000     0.22222000000000     0.02853000000000
Gd     Gd     0.25846000000000     0.59940000000000     0.75739000000000
Gd     Gd     0.19724000000000     0.13609000000000     0.01923000000000
Gd     Gd     0.25247000000000     0.29289000000000     0.02589000000000
Gd     Gd     0.36248000000000     0.16545000000000     0.02636000000000
Gd     Gd     0.32364000000000     0.24681000000000     0.03456000000000
Gd     Gd     0.16878000000000     0.30019000000000     0.00202000000000
Gd     Gd     0.28463000000000     0.54004000000000     0.81958000000000
Gd     Gd     0.33339000000000     0.33079000000000     0.01177000000000
Gd     Gd     0.20799000000000     0.52941000000000     0.78344000000000
Gd     Gd     0.24506000000000     0.52605000000000     0.70733000000000
Gd     Gd     0.21224000000000     0.52043000000000     0.87031000000000
Gd     Gd     0.32134000000000     0.53660000000000     0.74310000000000
Gd     Gd     0.37164000000000     0.53014000000000     0.81783000000000
Gd     Gd     0.16110000000000     0.50123000000000     0.71171000000000
Gd     Gd     0.32027000000000     0.51151000000000     0.65954000000000
N      N      0.25660000000000     0.06630000000000     0.04060000000000
H      H      0.26960000000000     0.05200000000000     0.03400000000000
N      N      0.43430000000000     0.22440000000000     0.03720000000000
H      H      0.44950000000000     0.23650000000000     0.03070000000000
N      N      0.27290000000000     0.39970000000000     0.01340000000000
H      H      0.25920000000000     0.40850000000000     0.00100000000000
N      N      0.09830000000000     0.24080000000000     0.01340000000000
H      H      0.08590000000000     0.22650000000000     0.00580000000000
N      N      0.27860000000000     0.54650000000000     0.92580000000000
H      H      0.29510000000000     0.54000000000000     0.93600000000000
N      N      0.09780000000000     0.51360000000000     0.78080000000000
H      H      0.08460000000000     0.50950000000000     0.79590000000000
N      N      0.25300000000000     0.52040000000000     0.59590000000000
H      H      0.24890000000000     0.52430000000000     0.57630000000000
N      N      0.43250000000000     0.53770000000000     0.75010000000000
H      H      0.45020000000000     0.54220000000000     0.74090000000000
C      C      0.22700000000000     0.04020000000000     0.00490000000000
H      H      0.21090000000000     0.04410000000000     0.98930000000000
H      H      0.22290000000000     0.02030000000000     0.01520000000000
H      H      0.24740000000000     0.03950000000000     0.99480000000000
C      C      0.22670000000000     0.06540000000000     0.02820000000000
C      C      0.24660000000000     0.11500000000000     0.07160000000000
H      H      0.22720000000000     0.10780000000000     0.08210000000000
C      C      0.26810000000000     0.08750000000000     0.06250000000000
C      C      0.29410000000000     0.08960000000000     0.07730000000000
H      H      0.30940000000000     0.07370000000000     0.07650000000000
C      C      0.29840000000000     0.11750000000000     0.09530000000000
H      H      0.30220000000000     0.11120000000000     0.11730000000000
C      C      0.32460000000000     0.14000000000000     0.08570000000000
H      H      0.32640000000000     0.15830000000000     0.09980000000000
C      C      0.35840000000000     0.11640000000000     0.08550000000000
H      H      0.36320000000000     0.10690000000000     0.10590000000000
H      H      0.35850000000000     0.10050000000000     0.06880000000000
C      C      0.45810000000000     0.18880000000000     0.00200000000000
H      H      0.45330000000000     0.16740000000000     0.99610000000000
H      H      0.47950000000000     0.18990000000000     0.00980000000000
H      H      0.45590000000000     0.20240000000000     0.98390000000000
C      C      0.43630000000000     0.19910000000000     0.02690000000000
C      C      0.38400000000000     0.22000000000000     0.07140000000000
H      H      0.39110000000000     0.20280000000000     0.08530000000000
C      C      0.41240000000000     0.24120000000000     0.05860000000000
C      C      0.41120000000000     0.26990000000000     0.06580000000000
H      H      0.42410000000000     0.28550000000000     0.05700000000000
C      C      0.38750000000000     0.27580000000000     0.08930000000000
H      H      0.39570000000000     0.28250000000000     0.11000000000000
C      C      0.36300000000000     0.29930000000000     0.07340000000000
H      H      0.34490000000000     0.30090000000000     0.08790000000000
C      C      0.37840000000000     0.33530000000000     0.07080000000000
H      H      0.38510000000000     0.34330000000000     0.09130000000000
H      H      0.39620000000000     0.33590000000000     0.05620000000000
C      C      0.31000000000000     0.42550000000000     0.98390000000000
H      H      0.33170000000000     0.42110000000000     0.97860000000000
H      H      0.30850000000000     0.44610000000000     0.99350000000000
H      H      0.29730000000000     0.42490000000000     0.96510000000000
C      C      0.29860000000000     0.40160000000000     0.00630000000000
C      C      0.27740000000000     0.35670000000000     0.05310000000000
H      H      0.29570000000000     0.36380000000000     0.06550000000000
C      C      0.26040000000000     0.38330000000000     0.04260000000000
C      C      0.22880000000000     0.38510000000000     0.04680000000000
H      H      0.21400000000000     0.39860000000000     0.03740000000000
C      C      0.22320000000000     0.35660000000000     0.07320000000000
H      H      0.21760000000000     0.36630000000000     0.09350000000000
C      C      0.19580000000000     0.33600000000000     0.06220000000000
H      H      0.19210000000000     0.31900000000000     0.07770000000000
C      C      0.16720000000000     0.35150000000000     0.05550000000000
H      H      0.15950000000000     0.36220000000000     0.07440000000000
H      H      0.17050000000000     0.36720000000000     0.03910000000000
C      C      0.07900000000000     0.27720000000000     0.97400000000000
H      H      0.08570000000000     0.29790000000000     0.96740000000000
H      H      0.05730000000000     0.27810000000000     0.98100000000000
H      H      0.08070000000000     0.26270000000000     0.95650000000000
C      C      0.09810000000000     0.26680000000000     0.99890000000000
C      C      0.14000000000000     0.25280000000000     0.05160000000000
H      H      0.13190000000000     0.27280000000000     0.06050000000000
C      C      0.11500000000000     0.23220000000000     0.03870000000000
C      C      0.11110000000000     0.20070000000000     0.05180000000000
H      H      0.09710000000000     0.18450000000000     0.04650000000000
C      C      0.13570000000000     0.20230000000000     0.07570000000000
H      H      0.12600000000000     0.19910000000000     0.09660000000000
C      C      0.16040000000000     0.17810000000000     0.07110000000000
H      H      0.17550000000000     0.17930000000000     0.08880000000000
C      C      0.14390000000000     0.14370000000000     0.07120000000000
H      H      0.13330000000000     0.13980000000000     0.09130000000000
H      H      0.12860000000000     0.14200000000000     0.05420000000000
C      C      0.14900000000000     0.18730000000000     0.93670000000000
H      H      0.14390000000000     0.20860000000000     0.93030000000000
H      H      0.13000000000000     0.17470000000000     0.93690000000000
H      H      0.16390000000000     0.17830000000000     0.92210000000000
C      C      0.16090000000000     0.18780000000000     0.96420000000000
C      C      0.30020000000000     0.10540000000000     0.95840000000000
H      H      0.27790000000000     0.10080000000000     0.95810000000000
H      H      0.31190000000000     0.08610000000000     0.96100000000000
H      H      0.30620000000000     0.11530000000000     0.93870000000000
C      C      0.30660000000000     0.12510000000000     0.98260000000000
C      C      0.40250000000000     0.26520000000000     0.95680000000000
H      H      0.40540000000000     0.24260000000000     0.95810000000000
H      H      0.42030000000000     0.27570000000000     0.96640000000000
H      H      0.40080000000000     0.27140000000000     0.93500000000000
C      C      0.37840000000000     0.27260000000000     0.97080000000000
C      C      0.23600000000000     0.34750000000000     0.92860000000000
H      H      0.21800000000000     0.35280000000000     0.91570000000000
H      H      0.25020000000000     0.33430000000000     0.91660000000000
H      H      0.24670000000000     0.36650000000000     0.93490000000000
C      C      0.22420000000000     0.32860000000000     0.95960000000000
C      C      0.25200000000000     0.50650000000000     0.96390000000000
H      H      0.23160000000000     0.49650000000000     0.96560000000000
H      H      0.25730000000000     0.51640000000000     0.98370000000000
H      H      0.26770000000000     0.49080000000000     0.95880000000000
C      C      0.25120000000000     0.52840000000000     0.94100000000000
C      C      0.26740000000000     0.57420000000000     0.88010000000000
H      H      0.24960000000000     0.58550000000000     0.88980000000000
C      C      0.29120000000000     0.56850000000000     0.90360000000000
C      C      0.31280000000000     0.58220000000000     0.90120000000000
H      H      0.32860000000000     0.58160000000000     0.91670000000000
C      C      0.31600000000000     0.59970000000000     0.87540000000000
H      H      0.32000000000000     0.62200000000000     0.88050000000000
C      C      0.33700000000000     0.58830000000000     0.85200000000000
H      H      0.33560000000000     0.60260000000000     0.83370000000000
C      C      0.37150000000000     0.59000000000000     0.86500000000000
H      H      0.37690000000000     0.61130000000000     0.87180000000000
H      H      0.37470000000000     0.57530000000000     0.88230000000000
C      C      0.08670000000000     0.46760000000000     0.74580000000000
H      H      0.09110000000000     0.45970000000000     0.72480000000000
H      H      0.06420000000000     0.46960000000000     0.74860000000000
H      H      0.09510000000000     0.45300000000000     0.76120000000000
C      C      0.10090000000000     0.49680000000000     0.74960000000000
C      C      0.14080000000000     0.54930000000000     0.76410000000000
H      H      0.13100000000000     0.55800000000000     0.74490000000000
C      C      0.11980000000000     0.53600000000000     0.78020000000000
C      C      0.11990000000000     0.54950000000000     0.81320000000000
H      H      0.10780000000000     0.54250000000000     0.83030000000000
C      C      0.14450000000000     0.57760000000000     0.81320000000000
H      H      0.13370000000000     0.59760000000000     0.81810000000000
C      C      0.16820000000000     0.57100000000000     0.83680000000000
H      H      0.18370000000000     0.58790000000000     0.83300000000000
C      C      0.16380000000000     0.57260000000000     0.87430000000000
H      H      0.15640000000000     0.59360000000000     0.88010000000000
H      H      0.14750000000000     0.55750000000000     0.88060000000000
C      C      0.27200000000000     0.46800000000000     0.56900000000000
H      H      0.29150000000000     0.45650000000000     0.56790000000000
H      H      0.26740000000000     0.47720000000000     0.54850000000000
H      H      0.25500000000000     0.45450000000000     0.57530000000000
C      C      0.27610000000000     0.49950000000000     0.59730000000000
C      C      0.24880000000000     0.54860000000000     0.64360000000000
H      H      0.26330000000000     0.56250000000000     0.63200000000000
C      C      0.23170000000000     0.53940000000000     0.61540000000000
C      C      0.20800000000000     0.54870000000000     0.62090000000000
H      H      0.19010000000000     0.54160000000000     0.61000000000000
C      C      0.20580000000000     0.57080000000000     0.64420000000000
H      H      0.19740000000000     0.59140000000000     0.63750000000000
C      C      0.18890000000000     0.55590000000000     0.66470000000000
H      H      0.19120000000000     0.57200000000000     0.68140000000000
C      C      0.15120000000000     0.55300000000000     0.66820000000000
H      H      0.14390000000000     0.57430000000000     0.66340000000000
H      H      0.14530000000000     0.54040000000000     0.64980000000000
C      C      0.43780000000000     0.51690000000000     0.77360000000000
C      C      0.40290000000000     0.55770000000000     0.73280000000000
C      C      0.37980000000000     0.57110000000000     0.75060000000000
H      H      0.39210000000000     0.58590000000000     0.76380000000000
C      C      0.40100000000000     0.56970000000000     0.70320000000000
H      H      0.41410000000000     0.56400000000000     0.68630000000000
C      C      0.37780000000000     0.59070000000000     0.70170000000000
H      H      0.38370000000000     0.61160000000000     0.69360000000000
C      C      0.35400000000000     0.57800000000000     0.68860000000000
H      H      0.33610000000000     0.59290000000000     0.68780000000000
C      C      0.36950000000000     0.57370000000000     0.65400000000000
H      H      0.38650000000000     0.55820000000000     0.65440000000000
H      H      0.37770000000000     0.59360000000000     0.64600000000000
C      C      0.46150000000000     0.50010000000000     0.78210000000000
H      H      0.46680000000000     0.48540000000000     0.76550000000000
H      H      0.45630000000000     0.48860000000000     0.80100000000000
H      H      0.47940000000000     0.51370000000000     0.78620000000000
C      C      0.31560000000000     0.46170000000000     0.88880000000000
H      H      0.33410000000000     0.45130000000000     0.89710000000000
H      H      0.30280000000000     0.44660000000000     0.87740000000000
H      H      0.30340000000000     0.47050000000000     0.90590000000000
C      C      0.32570000000000     0.48830000000000     0.86620000000000
C      C      0.15460000000000     0.43680000000000     0.81950000000000
H      H      0.14500000000000     0.43840000000000     0.84000000000000
H      H      0.16810000000000     0.41850000000000     0.81870000000000
H      H      0.13840000000000     0.43510000000000     0.80360000000000
C      C      0.17560000000000     0.46830000000000     0.81280000000000
C      C      0.22720000000000     0.43060000000000     0.66220000000000
H      H      0.24860000000000     0.43290000000000     0.65490000000000
H      H      0.21400000000000     0.42360000000000     0.64500000000000
H      H      0.22660000000000     0.41520000000000     0.67900000000000
C      C      0.21650000000000     0.45880000000000     0.67310000000000
C      C      0.38100000000000     0.45610000000000     0.72860000000000
H      H      0.39000000000000     0.46500000000000     0.74760000000000
H      H      0.39770000000000     0.44780000000000     0.71550000000000
H      H      0.36660000000000     0.43930000000000     0.73420000000000
C      C      0.36500000000000     0.47890000000000     0.71250000000000
O      O      0.20610000000000     0.08280000000000     0.03710000000000
O      O      0.24120000000000     0.13400000000000     0.05060000000000
O      O      0.26870000000000     0.13140000000000     0.09400000000000
O      O      0.32010000000000     0.14810000000000     0.05550000000000
O      O      0.37830000000000     0.14520000000000     0.07800000000000
H      H      0.39400000000000     0.15370000000000     0.09100000000000
O      O      0.41740000000000     0.17780000000000     0.03890000000000
O      O      0.36190000000000     0.21060000000000     0.05030000000000
O      O      0.37040000000000     0.24730000000000     0.08940000000000
O      O      0.35200000000000     0.29120000000000     0.04640000000000
O      O      0.35260000000000     0.35160000000000     0.05910000000000
H      H      0.34380000000000     0.36920000000000     0.06920000000000
O      O      0.32310000000000     0.38670000000000     0.02050000000000
O      O      0.28650000000000     0.33480000000000     0.03350000000000
O      O      0.25220000000000     0.34480000000000     0.07530000000000
O      O      0.20650000000000     0.32300000000000     0.03390000000000
O      O      0.14660000000000     0.33050000000000     0.04610000000000
H      H      0.12650000000000     0.32750000000000     0.05480000000000
O      O      0.11350000000000     0.29100000000000     0.00750000000000
O      O      0.16480000000000     0.25690000000000     0.03020000000000
O      O      0.15090000000000     0.23030000000000     0.07560000000000
O      O      0.17590000000000     0.18120000000000     0.04440000000000
O      O      0.17030000000000     0.12110000000000     0.06660000000000
H      H      0.17540000000000     0.10410000000000     0.07970000000000
O      O      0.22920000000000     0.53660000000000     0.92310000000000
O      O      0.25620000000000     0.54990000000000     0.86260000000000
O      O      0.28520000000000     0.59520000000000     0.86250000000000
O      O      0.32970000000000     0.55920000000000     0.84200000000000
O      O      0.38970000000000     0.58050000000000     0.83620000000000
H      H      0.40570000000000     0.59240000000000     0.82680000000000
O      O      0.10980000000000     0.50420000000000     0.72670000000000
O      O      0.16120000000000     0.53150000000000     0.75650000000000
O      O      0.15190000000000     0.57660000000000     0.78450000000000
O      O      0.18540000000000     0.54460000000000     0.82980000000000
O      O      0.18830000000000     0.56670000000000     0.88900000000000
H      H      0.19620000000000     0.57920000000000     0.90550000000000
O      O      0.30060000000000     0.51210000000000     0.60610000000000
O      O      0.27200000000000     0.53510000000000     0.66050000000000
O      O      0.23250000000000     0.57140000000000     0.65440000000000
O      O      0.19830000000000     0.53270000000000     0.68210000000000
O      O      0.13310000000000     0.54430000000000     0.68800000000000
H      H      0.11310000000000     0.55220000000000     0.69300000000000
O      O      0.42630000000000     0.54310000000000     0.79500000000000
O      O      0.36780000000000     0.55350000000000     0.77100000000000
O      O      0.36440000000000     0.59040000000000     0.73210000000000
O      O      0.34320000000000     0.54690000000000     0.69550000000000
O      O      0.33980000000000     0.56130000000000     0.63300000000000
H      H      0.33160000000000     0.57070000000000     0.61480000000000
O      O      0.17380000000000     0.15990000000000     0.97430000000000
O      O      0.17740000000000     0.21280000000000     0.97810000000000
O      O      0.33520000000000     0.13150000000000     0.98720000000000
O      O      0.28680000000000     0.13630000000000     0.99350000000000
O      O      0.36090000000000     0.24860000000000     0.98900000000000
O      O      0.36630000000000     0.29940000000000     0.97620000000000
O      O      0.24920000000000     0.32290000000000     0.97500000000000
O      O      0.19830000000000     0.32410000000000     0.95990000000000
O      O      0.35290000000000     0.47540000000000     0.68490000000000
O      O      0.36020000000000     0.49420000000000     0.73410000000000
O      O      0.34990000000000     0.48930000000000     0.85510000000000
O      O      0.29570000000000     0.50020000000000     0.85880000000000
O      O      0.18250000000000     0.48150000000000     0.79520000000000
O      O      0.18530000000000     0.47460000000000     0.84880000000000
O      O      0.23860000000000     0.46980000000000     0.68490000000000
O      O      0.19090000000000     0.46200000000000     0.68380000000000
O      O      0.22270000000000     0.26270000000000     0.06340000000000
H      H      0.20550000000000     0.27440000000000     0.07390000000000
O      O      0.28820000000000     0.27450000000000     0.06780000000000
H      H      0.29810000000000     0.29170000000000     0.07990000000000
O      O      0.30060000000000     0.21050000000000     0.07250000000000
H      H      0.31590000000000     0.20060000000000     0.08690000000000
O      O      0.23800000000000     0.19910000000000     0.06980000000000
H      H      0.22660000000000     0.18380000000000     0.08310000000000
O      O      0.26630000000000     0.23400000000000     0.02170000000000
O      O      0.29970000000000     0.28500000000000     0.00230000000000
H      H      0.29820000000000     0.27890000000000     0.97990000000000
O      O      0.31920000000000     0.19700000000000     0.00960000000000
H      H      0.31630000000000     0.19790000000000     0.98660000000000
O      O      0.22980000000000     0.17710000000000     0.00540000000000
H      H      0.23390000000000     0.17900000000000     0.98260000000000
O      O      0.21420000000000     0.26710000000000     0.99610000000000
H      H      0.22030000000000     0.26240000000000     0.97420000000000
O      O      0.28380000000000     0.56670000000000     0.72070000000000
H      H      0.29150000000000     0.57830000000000     0.70210000000000
O      O      0.21930000000000     0.56300000000000     0.74140000000000
H      H      0.20050000000000     0.57290000000000     0.73200000000000
O      O      0.23880000000000     0.57180000000000     0.80150000000000
H      H      0.22890000000000     0.58500000000000     0.81780000000000
O      O      0.30170000000000     0.57300000000000     0.77910000000000
H      H      0.31810000000000     0.58780000000000     0.78640000000000
O      O      0.26930000000000     0.52260000000000     0.76510000000000
O      O      0.23810000000000     0.50630000000000     0.82300000000000
H      H      0.24220000000000     0.48350000000000     0.82030000000000
O      O      0.20890000000000     0.49480000000000     0.74120000000000
H      H      0.21530000000000     0.47300000000000     0.74580000000000
O      O      0.29740000000000     0.50600000000000     0.70780000000000
H      H      0.29770000000000     0.48380000000000     0.71460000000000
O      O      0.32400000000000     0.51430000000000     0.79130000000000
H      H      0.32120000000000     0.49120000000000     0.79080000000000
O      O      0.25260000000000     0.28970000000000     0.12370000000000
O      O      0.21590000000000     0.23700000000000     0.13400000000000
O      O      0.26500000000000     0.19330000000000     0.13490000000000
O      O      0.30250000000000     0.25300000000000     0.13440000000000
O      O      0.15190000000000     0.10670000000000     0.00210000000000
O      O      0.23070000000000     0.11310000000000     0.98110000000000
O      O      0.13770000000000     0.34320000000000     0.97770000000000
O      O      0.15580000000000     0.26750000000000     0.96000000000000
O      O      0.30450000000000     0.34190000000000     0.96450000000000
O      O      0.37710000000000     0.36020000000000     0.99110000000000
O      O      0.39200000000000     0.11550000000000     0.01600000000000
O      O      0.38250000000000     0.19360000000000     0.98210000000000
O      O      0.24340000000000     0.62340000000000     0.70700000000000
O      O      0.21290000000000     0.63340000000000     0.76780000000000
O      O      0.26300000000000     0.63540000000000     0.79890000000000
O      O      0.29650000000000     0.63530000000000     0.74340000000000
O      O      0.12560000000000     0.47480000000000     0.68060000000000
O      O      0.15110000000000     0.46230000000000     0.74790000000000
O      O      0.17330000000000     0.50090000000000     0.90980000000000
O      O      0.25310000000000     0.48500000000000     0.88530000000000
O      O      0.40780000000000     0.51450000000000     0.85850000000000
O      O      0.38960000000000     0.48570000000000     0.79050000000000
O      O      0.36040000000000     0.48730000000000     0.62980000000000
O      O      0.29370000000000     0.46400000000000     0.65220000000000
