data_stdin
_audit_creation_method 'critic2-4f1eba8'
_cell_length_a        10.0800000000
_cell_length_b        10.0800000000
_cell_length_c        10.0800000000
_cell_angle_alpha        90.0000
_cell_angle_beta        90.0000
_cell_angle_gamma        90.0000
_cell_volume          1024.192512
_space_group_crystal_system cubic
_space_group_IT_number 197
_space_group_name_H-M_alt 'I23'
_space_group_name_Hall 'I 2 2 3'
loop_
_space_group_symop_operation_xyz
  'x,y,z'
  'x,-y,-z'
  '-x,-y,z'
  '-x,y,-z'
  'y,-z,-x'
  '-y,z,-x'
  '-y,-z,x'
  'y,z,x'
  '-z,x,-y'
  'z,x,y'
  '-z,-x,y'
  'z,-x,-y'
  '-1/2+x,-1/2+y,-1/2+z'
  '-1/2+x,-1/2-y,-1/2-z'
  '-1/2-x,-1/2-y,-1/2+z'
  '-1/2-x,-1/2+y,-1/2-z'
  '-1/2+y,-1/2-z,-1/2-x'
  '-1/2-y,-1/2+z,-1/2-x'
  '-1/2-y,-1/2-z,-1/2+x'
  '-1/2+y,-1/2+z,-1/2+x'
  '-1/2-z,-1/2+x,-1/2-y'
  '-1/2+z,-1/2+x,-1/2+y'
  '-1/2-z,-1/2-x,-1/2+y'
  '-1/2+z,-1/2-x,-1/2-y'
loop_
_atom_site_label
_atom_site_type_symbol
_atom_site_fract_x
_atom_site_fract_y
_atom_site_fract_z
Bi     Bi     0.32000000000000     0.18000000000000     0.02000000000000
O      O      0.37000000000000     0.98000000000000     0.16000000000000
O      O      0.23000000000000     0.23000000000000     0.23000000000000
O      O      0.89000000000000     0.89000000000000     0.89000000000000
Si     Si     0.00000000000000     0.00000000000000     0.00000000000000
