data_stdin
_cell_volume           716.677094
_symmetry_space_group_name_H-M 'P 1'
_symmetry_Int_Tables_number 1
loop_
_symmetry_equiv_pos_site_id
_symmetry_equiv_pos_as_xyz
1 x,y,z
_cell_length_a         8.9490000000
_cell_length_b         8.9490000000
_cell_length_c         8.9490000000
_cell_angle_alpha        90.0000
_cell_angle_beta        90.0000
_cell_angle_gamma        90.0000
_cell_formula_units_Z 1
loop_
_atom_site_label
_atom_site_type_symbol
_atom_site_fract_x
_atom_site_fract_y
_atom_site_fract_z
Hg     Hg     0.30290000000000     0.00000000000000     0.25000000000000
Hg     Hg     0.80290000000000     0.50000000000000     0.75000000000000
Hg     Hg     0.25000000000000     0.69710000000000     0.50000000000000
Hg     Hg     0.75000000000000     0.19710000000000     0.00000000000000
Hg     Hg     0.75000000000000     0.80290000000000     0.50000000000000
Hg     Hg     0.25000000000000     0.30290000000000     0.00000000000000
Hg     Hg     0.50000000000000     0.25000000000000     0.69710000000000
Hg     Hg     0.00000000000000     0.75000000000000     0.19710000000000
Hg     Hg     0.50000000000000     0.75000000000000     0.80290000000000
Hg     Hg     0.00000000000000     0.25000000000000     0.30290000000000
Hg     Hg     0.69710000000000     0.50000000000000     0.25000000000000
Hg     Hg     0.19710000000000     0.00000000000000     0.75000000000000
S      S      0.27090000000000     0.27090000000000     0.27090000000000
S      S      0.77090000000000     0.77090000000000     0.77090000000000
S      S      0.22910000000000     0.72910000000000     0.77090000000000
S      S      0.72910000000000     0.22910000000000     0.27090000000000
S      S      0.72910000000000     0.77090000000000     0.22910000000000
S      S      0.22910000000000     0.27090000000000     0.72910000000000
S      S      0.77090000000000     0.22910000000000     0.72910000000000
S      S      0.27090000000000     0.72910000000000     0.22910000000000
Cl     Cl     0.01070000000000     0.01070000000000     0.01070000000000
Cl     Cl     0.51070000000000     0.51070000000000     0.51070000000000
Cl     Cl     0.48930000000000     0.98930000000000     0.51070000000000
Cl     Cl     0.98930000000000     0.48930000000000     0.01070000000000
Cl     Cl     0.98930000000000     0.51070000000000     0.48930000000000
Cl     Cl     0.48930000000000     0.01070000000000     0.98930000000000
Cl     Cl     0.51070000000000     0.48930000000000     0.98930000000000
Cl     Cl     0.01070000000000     0.98930000000000     0.48930000000000
