data_stdin
_audit_creation_method 'critic2-4f1eba8'
_cell_length_a         9.6050000000
_cell_length_b         9.6050000000
_cell_length_c         9.6050000000
_cell_angle_alpha        90.0000
_cell_angle_beta        90.0000
_cell_angle_gamma        90.0000
_cell_volume           886.119120
_space_group_crystal_system cubic
_space_group_IT_number 200
_space_group_name_H-M_alt 'Pm-3'
_space_group_name_Hall '-P 2 2 3'
loop_
_space_group_symop_operation_xyz
  'x,y,z'
  '-x,-y,-z'
  '-x,-y,z'
  'x,y,-z'
  'x,-y,-z'
  '-x,y,z'
  '-x,y,-z'
  'x,-y,z'
  'z,x,y'
  '-z,-x,-y'
  'z,-x,-y'
  '-z,x,y'
  '-z,x,-y'
  'z,-x,y'
  '-z,-x,y'
  'z,x,-y'
  'y,z,x'
  '-y,-z,-x'
  '-y,z,-x'
  'y,-z,x'
  '-y,-z,x'
  'y,z,-x'
  'y,-z,-x'
  '-y,z,x'
loop_
_atom_site_label
_atom_site_type_symbol
_atom_site_fract_x
_atom_site_fract_y
_atom_site_fract_z
Na     Na     0.31050000000000     0.00000000000000     0.50000000000000
Cd     Cd     0.50000000000000     0.50000000000000     0.50000000000000
Cd     Cd     0.50000000000000     0.23440000000000     0.34260000000000
Cd     Cd     0.21840000000000     0.21840000000000     0.21840000000000
Cd     Cd     0.16140000000000     0.50000000000000     0.00000000000000
Cd     Cd     0.23180000000000     0.00000000000000     0.00000000000000
