data_stdin
_audit_creation_method 'critic2-4f1eba8'
_cell_length_a        14.2600000000
_cell_length_b        14.2600000000
_cell_length_c        14.2600000000
_cell_angle_alpha        90.0000
_cell_angle_beta        90.0000
_cell_angle_gamma        90.0000
_cell_volume          2899.736776
_space_group_crystal_system cubic
_space_group_IT_number 202
_space_group_name_H-M_alt 'Fm-3'
_space_group_name_Hall '-F 2 2 3'
loop_
_space_group_symop_operation_xyz
  'x,y,z'
  '-x,-y,-z'
  '-x,y,-z'
  'x,-y,z'
  'x,-y,-z'
  '-x,y,z'
  '-x,-y,z'
  'x,y,-z'
  'y,-z,-x'
  '-y,z,x'
  'y,z,x'
  '-y,-z,-x'
  '-y,z,-x'
  'y,-z,x'
  '-y,-z,x'
  'y,z,-x'
  '-z,x,-y'
  'z,-x,y'
  'z,-x,-y'
  '-z,x,y'
  'z,x,y'
  '-z,-x,-y'
  '-z,-x,y'
  'z,x,-y'
  '-1/2+x,-1/2+y,z'
  '-1/2-x,-1/2-y,-z'
  '-1/2-x,-1/2+y,-z'
  '-1/2+x,-1/2-y,z'
  '-1/2+x,-1/2-y,-z'
  '-1/2-x,-1/2+y,z'
  '-1/2-x,-1/2-y,z'
  '-1/2+x,-1/2+y,-z'
  '-1/2+y,-1/2-z,-x'
  '-1/2-y,-1/2+z,x'
  '-1/2+y,-1/2+z,x'
  '-1/2-y,-1/2-z,-x'
  '-1/2-y,-1/2+z,-x'
  '-1/2+y,-1/2-z,x'
  '-1/2-y,-1/2-z,x'
  '-1/2+y,-1/2+z,-x'
  '-1/2-z,-1/2+x,-y'
  '-1/2+z,-1/2-x,y'
  '-1/2+z,-1/2-x,-y'
  '-1/2-z,-1/2+x,y'
  '-1/2+z,-1/2+x,y'
  '-1/2-z,-1/2-x,-y'
  '-1/2-z,-1/2-x,y'
  '-1/2+z,-1/2+x,-y'
  '-1/2+x,y,-1/2+z'
  '-1/2-x,-y,-1/2-z'
  '-1/2-x,y,-1/2-z'
  '-1/2+x,-y,-1/2+z'
  '-1/2+x,-y,-1/2-z'
  '-1/2-x,y,-1/2+z'
  '-1/2-x,-y,-1/2+z'
  '-1/2+x,y,-1/2-z'
  '-1/2+y,-z,-1/2-x'
  '-1/2-y,z,-1/2+x'
  '-1/2+y,z,-1/2+x'
  '-1/2-y,-z,-1/2-x'
  '-1/2-y,z,-1/2-x'
  '-1/2+y,-z,-1/2+x'
  '-1/2-y,-z,-1/2+x'
  '-1/2+y,z,-1/2-x'
  '-1/2-z,x,-1/2-y'
  '-1/2+z,-x,-1/2+y'
  '-1/2+z,-x,-1/2-y'
  '-1/2-z,x,-1/2+y'
  '-1/2+z,x,-1/2+y'
  '-1/2-z,-x,-1/2-y'
  '-1/2-z,-x,-1/2+y'
  '-1/2+z,x,-1/2-y'
  'x,-1/2+y,-1/2+z'
  '-x,-1/2-y,-1/2-z'
  '-x,-1/2+y,-1/2-z'
  'x,-1/2-y,-1/2+z'
  'x,-1/2-y,-1/2-z'
  '-x,-1/2+y,-1/2+z'
  '-x,-1/2-y,-1/2+z'
  'x,-1/2+y,-1/2-z'
  'y,-1/2-z,-1/2-x'
  '-y,-1/2+z,-1/2+x'
  'y,-1/2+z,-1/2+x'
  '-y,-1/2-z,-1/2-x'
  '-y,-1/2+z,-1/2-x'
  'y,-1/2-z,-1/2+x'
  '-y,-1/2-z,-1/2+x'
  'y,-1/2+z,-1/2-x'
  '-z,-1/2+x,-1/2-y'
  'z,-1/2-x,-1/2+y'
  'z,-1/2-x,-1/2-y'
  '-z,-1/2+x,-1/2+y'
  'z,-1/2+x,-1/2+y'
  '-z,-1/2-x,-1/2-y'
  '-z,-1/2-x,-1/2+y'
  'z,-1/2+x,-1/2-y'
loop_
_atom_site_label
_atom_site_type_symbol
_atom_site_fract_x
_atom_site_fract_y
_atom_site_fract_z
C      C      0.05200000000000     0.00000000000000     0.24900000000000
C      C      0.10500000000000     0.08500000000000     0.22000000000000
C      C      0.18500000000000     0.05200000000000     0.16500000000000
