data_stdin
_audit_creation_method 'critic2-4f1eba8'
_cell_length_a        13.9038000000
_cell_length_b        13.9038000000
_cell_length_c        13.9038000000
_cell_angle_alpha        90.0000
_cell_angle_beta        90.0000
_cell_angle_gamma        90.0000
_cell_volume          2687.822196
_space_group_crystal_system cubic
_space_group_IT_number 203
_space_group_name_H-M_alt 'Fd-3'
_space_group_name_Hall 'F 2 2 3 -1d'
loop_
_space_group_symop_operation_xyz
  'x,y,z'
  '-1/4-x,y,-1/4-z'
  'x,-1/4-y,-1/4-z'
  '-3/4-x,-3/4-y,z'
  'y,-1/4-z,-1/4-x'
  'y,z,x'
  '-1/4-y,z,-1/4-x'
  '-3/4-y,-3/4-z,x'
  '-1/4-z,x,-1/4-y'
  'z,-1/4-x,-1/4-y'
  'z,x,y'
  '-3/4-z,-3/4-x,y'
  '-x,-y,-z'
  '-1/4+x,-y,-1/4+z'
  '-x,-1/4+y,-1/4+z'
  '-3/4+x,-3/4+y,-z'
  '-y,-1/4+z,-1/4+x'
  '-y,-z,-x'
  '-1/4+y,-z,-1/4+x'
  '-3/4+y,-3/4+z,-x'
  '-1/4+z,-x,-1/4+y'
  '-z,-1/4+x,-1/4+y'
  '-z,-x,-y'
  '-3/4+z,-3/4+x,-y'
  '-1/2+x,-1/2+y,z'
  '-3/4-x,-1/2+y,-1/4-z'
  '-1/2+x,-3/4-y,-1/4-z'
  '-1/4-x,-1/4-y,z'
  '-1/2+y,-3/4-z,-1/4-x'
  '-1/2+y,-1/2+z,x'
  '-3/4-y,-1/2+z,-1/4-x'
  '-1/4-y,-1/4-z,x'
  '-3/4-z,-1/2+x,-1/4-y'
  '-1/2+z,-3/4-x,-1/4-y'
  '-1/2+z,-1/2+x,y'
  '-1/4-z,-1/4-x,y'
  '-1/2-x,-1/2-y,-z'
  '-3/4+x,-1/2-y,-1/4+z'
  '-1/2-x,-3/4+y,-1/4+z'
  '-1/4+x,-1/4+y,-z'
  '-1/2-y,-3/4+z,-1/4+x'
  '-1/2-y,-1/2-z,-x'
  '-3/4+y,-1/2-z,-1/4+x'
  '-1/4+y,-1/4+z,-x'
  '-3/4+z,-1/2-x,-1/4+y'
  '-1/2-z,-3/4+x,-1/4+y'
  '-1/2-z,-1/2-x,-y'
  '-1/4+z,-1/4+x,-y'
  '-1/2+x,y,-1/2+z'
  '-3/4-x,y,-3/4-z'
  '-1/2+x,-1/4-y,-3/4-z'
  '-1/4-x,-3/4-y,-1/2+z'
  '-1/2+y,-1/4-z,-3/4-x'
  '-1/2+y,z,-1/2+x'
  '-3/4-y,z,-3/4-x'
  '-1/4-y,-3/4-z,-1/2+x'
  '-3/4-z,x,-3/4-y'
  '-1/2+z,-1/4-x,-3/4-y'
  '-1/2+z,x,-1/2+y'
  '-1/4-z,-3/4-x,-1/2+y'
  '-1/2-x,-y,-1/2-z'
  '-3/4+x,-y,-3/4+z'
  '-1/2-x,-1/4+y,-3/4+z'
  '-1/4+x,-3/4+y,-1/2-z'
  '-1/2-y,-1/4+z,-3/4+x'
  '-1/2-y,-z,-1/2-x'
  '-3/4+y,-z,-3/4+x'
  '-1/4+y,-3/4+z,-1/2-x'
  '-3/4+z,-x,-3/4+y'
  '-1/2-z,-1/4+x,-3/4+y'
  '-1/2-z,-x,-1/2-y'
  '-1/4+z,-3/4+x,-1/2-y'
  'x,-1/2+y,-1/2+z'
  '-1/4-x,-1/2+y,-3/4-z'
  'x,-3/4-y,-3/4-z'
  '-3/4-x,-1/4-y,-1/2+z'
  'y,-3/4-z,-3/4-x'
  'y,-1/2+z,-1/2+x'
  '-1/4-y,-1/2+z,-3/4-x'
  '-3/4-y,-1/4-z,-1/2+x'
  '-1/4-z,-1/2+x,-3/4-y'
  'z,-3/4-x,-3/4-y'
  'z,-1/2+x,-1/2+y'
  '-3/4-z,-1/4-x,-1/2+y'
  '-x,-1/2-y,-1/2-z'
  '-1/4+x,-1/2-y,-3/4+z'
  '-x,-3/4+y,-3/4+z'
  '-3/4+x,-1/4+y,-1/2-z'
  '-y,-3/4+z,-3/4+x'
  '-y,-1/2-z,-1/2-x'
  '-1/4+y,-1/2-z,-3/4+x'
  '-3/4+y,-1/4+z,-1/2-x'
  '-1/4+z,-1/2-x,-3/4+y'
  '-z,-3/4+x,-3/4+y'
  '-z,-1/2-x,-1/2-y'
  '-3/4+z,-1/4+x,-1/2-y'
loop_
_atom_site_label
_atom_site_type_symbol
_atom_site_fract_x
_atom_site_fract_y
_atom_site_fract_z
S      S      0.12500000000000     0.12500000000000     0.12500000000000
Mg     Mg     0.00000000000000     0.50000000000000     0.00000000000000
C      C      0.03207000000000     0.71793000000000     0.03207000000000
Na     Na     0.34379000000000     0.12500000000000     0.12500000000000
O      O      0.26626000000000     0.22529000000000     0.35333000000000
O      O      0.06362000000000     0.06362000000000     0.06362000000000
