data_stdin
_cell_volume           158.867831
_symmetry_space_group_name_H-M 'P 1'
_symmetry_Int_Tables_number 1
loop_
_symmetry_equiv_pos_site_id
_symmetry_equiv_pos_as_xyz
1 x,y,z
_cell_length_a         5.4160000000
_cell_length_b         5.4160000000
_cell_length_c         5.4160000000
_cell_angle_alpha        90.0000
_cell_angle_beta        90.0000
_cell_angle_gamma        90.0000
_cell_formula_units_Z 1
loop_
_atom_site_label
_atom_site_type_symbol
_atom_site_fract_x
_atom_site_fract_y
_atom_site_fract_z
Fe     Fe     0.00000000000000     0.00000000000000     0.00000000000000
Fe     Fe     0.50000000000000     0.00000000000000     0.50000000000000
Fe     Fe     0.00000000000000     0.50000000000000     0.50000000000000
Fe     Fe     0.50000000000000     0.50000000000000     0.00000000000000
S      S      0.38488000000000     0.38488000000000     0.38488000000000
S      S      0.88488000000000     0.38488000000000     0.11512000000000
S      S      0.38488000000000     0.11512000000000     0.88488000000000
S      S      0.11512000000000     0.88488000000000     0.38488000000000
S      S      0.61512000000000     0.61512000000000     0.61512000000000
S      S      0.88488000000000     0.11512000000000     0.61512000000000
S      S      0.11512000000000     0.61512000000000     0.88488000000000
S      S      0.61512000000000     0.88488000000000     0.11512000000000
