data_stdin
_cell_volume           868.054094
_symmetry_space_group_name_H-M 'P 1'
_symmetry_Int_Tables_number 1
loop_
_symmetry_equiv_pos_site_id
_symmetry_equiv_pos_as_xyz
1 x,y,z
_cell_length_a         9.5392800000
_cell_length_b         9.5392800000
_cell_length_c         9.5392800000
_cell_angle_alpha        90.0000
_cell_angle_beta        90.0000
_cell_angle_gamma        90.0000
_cell_formula_units_Z 1
loop_
_atom_site_label
_atom_site_type_symbol
_atom_site_fract_x
_atom_site_fract_y
_atom_site_fract_z
Te     Te     0.25000000000000     0.25000000000000     0.25000000000000
Te     Te     0.75000000000000     0.75000000000000     0.75000000000000
Te     Te     0.75000000000000     0.25000000000000     0.25000000000000
Te     Te     0.25000000000000     0.75000000000000     0.75000000000000
Te     Te     0.75000000000000     0.75000000000000     0.25000000000000
Te     Te     0.25000000000000     0.25000000000000     0.75000000000000
Te     Te     0.75000000000000     0.25000000000000     0.75000000000000
Te     Te     0.25000000000000     0.75000000000000     0.25000000000000
Cu     Cu     0.96845000000000     0.00000000000000     0.25000000000000
Cu     Cu     0.46845000000000     0.50000000000000     0.75000000000000
Cu     Cu     0.75000000000000     0.96845000000000     0.50000000000000
Cu     Cu     0.25000000000000     0.46845000000000     0.00000000000000
Cu     Cu     0.75000000000000     0.03155000000000     0.00000000000000
Cu     Cu     0.25000000000000     0.53155000000000     0.50000000000000
Cu     Cu     0.50000000000000     0.25000000000000     0.03155000000000
Cu     Cu     0.00000000000000     0.75000000000000     0.53155000000000
Cu     Cu     0.00000000000000     0.25000000000000     0.96845000000000
Cu     Cu     0.50000000000000     0.75000000000000     0.46845000000000
Cu     Cu     0.96845000000000     0.50000000000000     0.75000000000000
Cu     Cu     0.46845000000000     0.00000000000000     0.25000000000000
Cu     Cu     0.03155000000000     0.00000000000000     0.75000000000000
Cu     Cu     0.53155000000000     0.50000000000000     0.25000000000000
Cu     Cu     0.25000000000000     0.03155000000000     0.50000000000000
Cu     Cu     0.75000000000000     0.53155000000000     0.00000000000000
Cu     Cu     0.25000000000000     0.96845000000000     0.00000000000000
Cu     Cu     0.75000000000000     0.46845000000000     0.50000000000000
Cu     Cu     0.50000000000000     0.75000000000000     0.96845000000000
Cu     Cu     0.00000000000000     0.25000000000000     0.46845000000000
Cu     Cu     0.00000000000000     0.75000000000000     0.03155000000000
Cu     Cu     0.50000000000000     0.25000000000000     0.53155000000000
Cu     Cu     0.03155000000000     0.50000000000000     0.25000000000000
Cu     Cu     0.53155000000000     0.00000000000000     0.75000000000000
O      O      0.36660000000000     0.17500000000000     0.39530000000000
O      O      0.86660000000000     0.67500000000000     0.89530000000000
O      O      0.89530000000000     0.36660000000000     0.32500000000000
O      O      0.39530000000000     0.86660000000000     0.82500000000000
O      O      0.89530000000000     0.63340000000000     0.17500000000000
O      O      0.39530000000000     0.13340000000000     0.67500000000000
O      O      0.60470000000000     0.36660000000000     0.67500000000000
O      O      0.10470000000000     0.86660000000000     0.17500000000000
O      O      0.60470000000000     0.63340000000000     0.82500000000000
O      O      0.10470000000000     0.13340000000000     0.32500000000000
O      O      0.67500000000000     0.10470000000000     0.63340000000000
O      O      0.17500000000000     0.60470000000000     0.13340000000000
O      O      0.82500000000000     0.10470000000000     0.36660000000000
O      O      0.32500000000000     0.60470000000000     0.86660000000000
O      O      0.32500000000000     0.39530000000000     0.63340000000000
O      O      0.82500000000000     0.89530000000000     0.13340000000000
O      O      0.17500000000000     0.39530000000000     0.36660000000000
O      O      0.67500000000000     0.89530000000000     0.86660000000000
O      O      0.36660000000000     0.32500000000000     0.89530000000000
O      O      0.86660000000000     0.82500000000000     0.39530000000000
O      O      0.63340000000000     0.17500000000000     0.89530000000000
O      O      0.13340000000000     0.67500000000000     0.39530000000000
O      O      0.36660000000000     0.67500000000000     0.60470000000000
O      O      0.86660000000000     0.17500000000000     0.10470000000000
O      O      0.63340000000000     0.82500000000000     0.60470000000000
O      O      0.13340000000000     0.32500000000000     0.10470000000000
O      O      0.10470000000000     0.63340000000000     0.67500000000000
O      O      0.60470000000000     0.13340000000000     0.17500000000000
O      O      0.10470000000000     0.36660000000000     0.82500000000000
O      O      0.60470000000000     0.86660000000000     0.32500000000000
O      O      0.39530000000000     0.63340000000000     0.32500000000000
O      O      0.89530000000000     0.13340000000000     0.82500000000000
O      O      0.39530000000000     0.36660000000000     0.17500000000000
O      O      0.89530000000000     0.86660000000000     0.67500000000000
O      O      0.32500000000000     0.89530000000000     0.36660000000000
O      O      0.82500000000000     0.39530000000000     0.86660000000000
O      O      0.17500000000000     0.89530000000000     0.63340000000000
O      O      0.67500000000000     0.39530000000000     0.13340000000000
O      O      0.67500000000000     0.60470000000000     0.36660000000000
O      O      0.17500000000000     0.10470000000000     0.86660000000000
O      O      0.82500000000000     0.60470000000000     0.63340000000000
O      O      0.32500000000000     0.10470000000000     0.13340000000000
O      O      0.63340000000000     0.67500000000000     0.10470000000000
O      O      0.13340000000000     0.17500000000000     0.60470000000000
O      O      0.36660000000000     0.82500000000000     0.10470000000000
O      O      0.86660000000000     0.32500000000000     0.60470000000000
O      O      0.63340000000000     0.32500000000000     0.39530000000000
O      O      0.13340000000000     0.82500000000000     0.89530000000000
