data_stdin
_cell_volume          4436.895577
_symmetry_space_group_name_H-M 'P 1'
_symmetry_Int_Tables_number 1
loop_
_symmetry_equiv_pos_site_id
_symmetry_equiv_pos_as_xyz
1 x,y,z
_cell_length_a        16.4321000000
_cell_length_b        16.4321000000
_cell_length_c        16.4321000000
_cell_angle_alpha        90.0000
_cell_angle_beta        90.0000
_cell_angle_gamma        90.0000
_cell_formula_units_Z 1
loop_
_atom_site_label
_atom_site_type_symbol
_atom_site_fract_x
_atom_site_fract_y
_atom_site_fract_z
Mg     Mg     0.00000000000000     0.00000000000000     0.00000000000000
Mg     Mg     0.00000000000000     0.50000000000000     0.50000000000000
Mg     Mg     0.50000000000000     0.00000000000000     0.50000000000000
Mg     Mg     0.50000000000000     0.50000000000000     0.00000000000000
Mg     Mg     0.25000000000000     0.25000000000000     0.25000000000000
Mg     Mg     0.25000000000000     0.75000000000000     0.75000000000000
Mg     Mg     0.75000000000000     0.25000000000000     0.75000000000000
Mg     Mg     0.75000000000000     0.75000000000000     0.25000000000000
H      H      0.08880000000000     0.03470000000000     0.21250000000000
H      H      0.08880000000000     0.53470000000000     0.71250000000000
H      H      0.58880000000000     0.03470000000000     0.71250000000000
H      H      0.58880000000000     0.53470000000000     0.21250000000000
H      H      0.21530000000000     0.33880000000000     0.46250000000000
H      H      0.21530000000000     0.83880000000000     0.96250000000000
H      H      0.71530000000000     0.33880000000000     0.96250000000000
H      H      0.71530000000000     0.83880000000000     0.46250000000000
H      H      0.91120000000000     0.46530000000000     0.71250000000000
H      H      0.91120000000000     0.96530000000000     0.21250000000000
H      H      0.41120000000000     0.46530000000000     0.21250000000000
H      H      0.41120000000000     0.96530000000000     0.71250000000000
H      H      0.78470000000000     0.16120000000000     0.96250000000000
H      H      0.78470000000000     0.66120000000000     0.46250000000000
H      H      0.28470000000000     0.16120000000000     0.46250000000000
H      H      0.28470000000000     0.66120000000000     0.96250000000000
H      H      0.08880000000000     0.96530000000000     0.78750000000000
H      H      0.08880000000000     0.46530000000000     0.28750000000000
H      H      0.58880000000000     0.96530000000000     0.28750000000000
H      H      0.58880000000000     0.46530000000000     0.78750000000000
H      H      0.28470000000000     0.33880000000000     0.03750000000000
H      H      0.28470000000000     0.83880000000000     0.53750000000000
H      H      0.78470000000000     0.33880000000000     0.53750000000000
H      H      0.78470000000000     0.83880000000000     0.03750000000000
H      H      0.91120000000000     0.53470000000000     0.28750000000000
H      H      0.91120000000000     0.03470000000000     0.78750000000000
H      H      0.41120000000000     0.53470000000000     0.78750000000000
H      H      0.41120000000000     0.03470000000000     0.28750000000000
H      H      0.71530000000000     0.16120000000000     0.53750000000000
H      H      0.71530000000000     0.66120000000000     0.03750000000000
H      H      0.21530000000000     0.16120000000000     0.03750000000000
H      H      0.21530000000000     0.66120000000000     0.53750000000000
H      H      0.21250000000000     0.08880000000000     0.03470000000000
H      H      0.21250000000000     0.58880000000000     0.53470000000000
H      H      0.71250000000000     0.08880000000000     0.53470000000000
H      H      0.71250000000000     0.58880000000000     0.03470000000000
H      H      0.16120000000000     0.46250000000000     0.28470000000000
H      H      0.16120000000000     0.96250000000000     0.78470000000000
H      H      0.66120000000000     0.46250000000000     0.78470000000000
H      H      0.66120000000000     0.96250000000000     0.28470000000000
H      H      0.78750000000000     0.41120000000000     0.53470000000000
H      H      0.78750000000000     0.91120000000000     0.03470000000000
H      H      0.28750000000000     0.41120000000000     0.03470000000000
H      H      0.28750000000000     0.91120000000000     0.53470000000000
H      H      0.83880000000000     0.03750000000000     0.78470000000000
H      H      0.83880000000000     0.53750000000000     0.28470000000000
H      H      0.33880000000000     0.03750000000000     0.28470000000000
H      H      0.33880000000000     0.53750000000000     0.78470000000000
H      H      0.21250000000000     0.91120000000000     0.96530000000000
H      H      0.21250000000000     0.41120000000000     0.46530000000000
H      H      0.71250000000000     0.91120000000000     0.46530000000000
H      H      0.71250000000000     0.41120000000000     0.96530000000000
H      H      0.33880000000000     0.46250000000000     0.21530000000000
H      H      0.33880000000000     0.96250000000000     0.71530000000000
H      H      0.83880000000000     0.46250000000000     0.71530000000000
H      H      0.83880000000000     0.96250000000000     0.21530000000000
H      H      0.78750000000000     0.58880000000000     0.46530000000000
H      H      0.78750000000000     0.08880000000000     0.96530000000000
H      H      0.28750000000000     0.58880000000000     0.96530000000000
H      H      0.28750000000000     0.08880000000000     0.46530000000000
H      H      0.66120000000000     0.03750000000000     0.71530000000000
H      H      0.66120000000000     0.53750000000000     0.21530000000000
H      H      0.16120000000000     0.03750000000000     0.21530000000000
H      H      0.16120000000000     0.53750000000000     0.71530000000000
H      H      0.03470000000000     0.21250000000000     0.08880000000000
H      H      0.03470000000000     0.71250000000000     0.58880000000000
H      H      0.53470000000000     0.21250000000000     0.58880000000000
H      H      0.53470000000000     0.71250000000000     0.08880000000000
H      H      0.53470000000000     0.78750000000000     0.41120000000000
H      H      0.53470000000000     0.28750000000000     0.91120000000000
H      H      0.03470000000000     0.78750000000000     0.91120000000000
H      H      0.03470000000000     0.28750000000000     0.41120000000000
H      H      0.46250000000000     0.78470000000000     0.66120000000000
H      H      0.46250000000000     0.28470000000000     0.16120000000000
H      H      0.96250000000000     0.78470000000000     0.16120000000000
H      H      0.96250000000000     0.28470000000000     0.66120000000000
H      H      0.46530000000000     0.71250000000000     0.91120000000000
H      H      0.46530000000000     0.21250000000000     0.41120000000000
H      H      0.96530000000000     0.71250000000000     0.41120000000000
H      H      0.96530000000000     0.21250000000000     0.91120000000000
H      H      0.03750000000000     0.21530000000000     0.16120000000000
H      H      0.03750000000000     0.71530000000000     0.66120000000000
H      H      0.53750000000000     0.21530000000000     0.66120000000000
H      H      0.53750000000000     0.71530000000000     0.16120000000000
H      H      0.96530000000000     0.78750000000000     0.08880000000000
H      H      0.96530000000000     0.28750000000000     0.58880000000000
H      H      0.46530000000000     0.78750000000000     0.58880000000000
H      H      0.46530000000000     0.28750000000000     0.08880000000000
H      H      0.46250000000000     0.71530000000000     0.83880000000000
H      H      0.46250000000000     0.21530000000000     0.33880000000000
H      H      0.96250000000000     0.71530000000000     0.33880000000000
H      H      0.96250000000000     0.21530000000000     0.83880000000000
H      H      0.53750000000000     0.78470000000000     0.33880000000000
H      H      0.53750000000000     0.28470000000000     0.83880000000000
H      H      0.03750000000000     0.78470000000000     0.83880000000000
H      H      0.03750000000000     0.28470000000000     0.33880000000000
H      H      0.17080000000000     0.01230000000000     0.04110000000000
H      H      0.17080000000000     0.51230000000000     0.54110000000000
H      H      0.67080000000000     0.01230000000000     0.54110000000000
H      H      0.67080000000000     0.51230000000000     0.04110000000000
H      H      0.23770000000000     0.42080000000000     0.29110000000000
H      H      0.23770000000000     0.92080000000000     0.79110000000000
H      H      0.73770000000000     0.42080000000000     0.79110000000000
H      H      0.73770000000000     0.92080000000000     0.29110000000000
H      H      0.82920000000000     0.48770000000000     0.54110000000000
H      H      0.82920000000000     0.98770000000000     0.04110000000000
H      H      0.32920000000000     0.48770000000000     0.04110000000000
H      H      0.32920000000000     0.98770000000000     0.54110000000000
H      H      0.76230000000000     0.07920000000000     0.79110000000000
H      H      0.76230000000000     0.57920000000000     0.29110000000000
H      H      0.26230000000000     0.07920000000000     0.29110000000000
H      H      0.26230000000000     0.57920000000000     0.79110000000000
H      H      0.17080000000000     0.98770000000000     0.95890000000000
H      H      0.17080000000000     0.48770000000000     0.45890000000000
H      H      0.67080000000000     0.98770000000000     0.45890000000000
H      H      0.67080000000000     0.48770000000000     0.95890000000000
H      H      0.26230000000000     0.42080000000000     0.20890000000000
H      H      0.26230000000000     0.92080000000000     0.70890000000000
H      H      0.76230000000000     0.42080000000000     0.70890000000000
H      H      0.76230000000000     0.92080000000000     0.20890000000000
H      H      0.82920000000000     0.51230000000000     0.45890000000000
H      H      0.82920000000000     0.01230000000000     0.95890000000000
H      H      0.32920000000000     0.51230000000000     0.95890000000000
H      H      0.32920000000000     0.01230000000000     0.45890000000000
H      H      0.73770000000000     0.07920000000000     0.70890000000000
H      H      0.73770000000000     0.57920000000000     0.20890000000000
H      H      0.23770000000000     0.07920000000000     0.20890000000000
H      H      0.23770000000000     0.57920000000000     0.70890000000000
H      H      0.04110000000000     0.17080000000000     0.01230000000000
H      H      0.04110000000000     0.67080000000000     0.51230000000000
H      H      0.54110000000000     0.17080000000000     0.51230000000000
H      H      0.54110000000000     0.67080000000000     0.01230000000000
H      H      0.07920000000000     0.29110000000000     0.26230000000000
H      H      0.07920000000000     0.79110000000000     0.76230000000000
H      H      0.57920000000000     0.29110000000000     0.76230000000000
H      H      0.57920000000000     0.79110000000000     0.26230000000000
H      H      0.95890000000000     0.32920000000000     0.51230000000000
H      H      0.95890000000000     0.82920000000000     0.01230000000000
H      H      0.45890000000000     0.32920000000000     0.01230000000000
H      H      0.45890000000000     0.82920000000000     0.51230000000000
H      H      0.92080000000000     0.20890000000000     0.76230000000000
H      H      0.92080000000000     0.70890000000000     0.26230000000000
H      H      0.42080000000000     0.20890000000000     0.26230000000000
H      H      0.42080000000000     0.70890000000000     0.76230000000000
H      H      0.04110000000000     0.82920000000000     0.98770000000000
H      H      0.04110000000000     0.32920000000000     0.48770000000000
H      H      0.54110000000000     0.82920000000000     0.48770000000000
H      H      0.54110000000000     0.32920000000000     0.98770000000000
H      H      0.42080000000000     0.29110000000000     0.23770000000000
H      H      0.42080000000000     0.79110000000000     0.73770000000000
H      H      0.92080000000000     0.29110000000000     0.73770000000000
H      H      0.92080000000000     0.79110000000000     0.23770000000000
H      H      0.95890000000000     0.67080000000000     0.48770000000000
H      H      0.95890000000000     0.17080000000000     0.98770000000000
H      H      0.45890000000000     0.67080000000000     0.98770000000000
H      H      0.45890000000000     0.17080000000000     0.48770000000000
H      H      0.57920000000000     0.20890000000000     0.73770000000000
H      H      0.57920000000000     0.70890000000000     0.23770000000000
H      H      0.07920000000000     0.20890000000000     0.23770000000000
H      H      0.07920000000000     0.70890000000000     0.73770000000000
H      H      0.01230000000000     0.04110000000000     0.17080000000000
H      H      0.01230000000000     0.54110000000000     0.67080000000000
H      H      0.51230000000000     0.04110000000000     0.67080000000000
H      H      0.51230000000000     0.54110000000000     0.17080000000000
H      H      0.51230000000000     0.95890000000000     0.32920000000000
H      H      0.51230000000000     0.45890000000000     0.82920000000000
H      H      0.01230000000000     0.95890000000000     0.82920000000000
H      H      0.01230000000000     0.45890000000000     0.32920000000000
H      H      0.29110000000000     0.76230000000000     0.57920000000000
H      H      0.29110000000000     0.26230000000000     0.07920000000000
H      H      0.79110000000000     0.76230000000000     0.07920000000000
H      H      0.79110000000000     0.26230000000000     0.57920000000000
H      H      0.48770000000000     0.54110000000000     0.82920000000000
H      H      0.48770000000000     0.04110000000000     0.32920000000000
H      H      0.98770000000000     0.54110000000000     0.32920000000000
H      H      0.98770000000000     0.04110000000000     0.82920000000000
H      H      0.20890000000000     0.23770000000000     0.07920000000000
H      H      0.20890000000000     0.73770000000000     0.57920000000000
H      H      0.70890000000000     0.23770000000000     0.57920000000000
H      H      0.70890000000000     0.73770000000000     0.07920000000000
H      H      0.98770000000000     0.95890000000000     0.17080000000000
H      H      0.98770000000000     0.45890000000000     0.67080000000000
H      H      0.48770000000000     0.95890000000000     0.67080000000000
H      H      0.48770000000000     0.45890000000000     0.17080000000000
H      H      0.29110000000000     0.73770000000000     0.92080000000000
H      H      0.29110000000000     0.23770000000000     0.42080000000000
H      H      0.79110000000000     0.73770000000000     0.42080000000000
H      H      0.79110000000000     0.23770000000000     0.92080000000000
H      H      0.70890000000000     0.76230000000000     0.42080000000000
H      H      0.70890000000000     0.26230000000000     0.92080000000000
H      H      0.20890000000000     0.76230000000000     0.92080000000000
H      H      0.20890000000000     0.26230000000000     0.42080000000000
H      H      0.35570000000000     0.49920000000000     0.41000000000000
H      H      0.35570000000000     0.99920000000000     0.91000000000000
H      H      0.85570000000000     0.49920000000000     0.91000000000000
H      H      0.85570000000000     0.99920000000000     0.41000000000000
H      H      0.75080000000000     0.60570000000000     0.66000000000000
H      H      0.75080000000000     0.10570000000000     0.16000000000000
H      H      0.25080000000000     0.60570000000000     0.16000000000000
H      H      0.25080000000000     0.10570000000000     0.66000000000000
H      H      0.64430000000000     0.00080000000000     0.91000000000000
H      H      0.64430000000000     0.50080000000000     0.41000000000000
H      H      0.14430000000000     0.00080000000000     0.41000000000000
H      H      0.14430000000000     0.50080000000000     0.91000000000000
H      H      0.24920000000000     0.89430000000000     0.16000000000000
H      H      0.24920000000000     0.39430000000000     0.66000000000000
H      H      0.74920000000000     0.89430000000000     0.66000000000000
H      H      0.74920000000000     0.39430000000000     0.16000000000000
H      H      0.35570000000000     0.50080000000000     0.59000000000000
H      H      0.35570000000000     0.00080000000000     0.09000000000000
H      H      0.85570000000000     0.50080000000000     0.09000000000000
H      H      0.85570000000000     0.00080000000000     0.59000000000000
H      H      0.74920000000000     0.60570000000000     0.84000000000000
H      H      0.74920000000000     0.10570000000000     0.34000000000000
H      H      0.24920000000000     0.60570000000000     0.34000000000000
H      H      0.24920000000000     0.10570000000000     0.84000000000000
H      H      0.64430000000000     0.99920000000000     0.09000000000000
H      H      0.64430000000000     0.49920000000000     0.59000000000000
H      H      0.14430000000000     0.99920000000000     0.59000000000000
H      H      0.14430000000000     0.49920000000000     0.09000000000000
H      H      0.25080000000000     0.89430000000000     0.34000000000000
H      H      0.25080000000000     0.39430000000000     0.84000000000000
H      H      0.75080000000000     0.89430000000000     0.84000000000000
H      H      0.75080000000000     0.39430000000000     0.34000000000000
H      H      0.41000000000000     0.35570000000000     0.49920000000000
H      H      0.41000000000000     0.85570000000000     0.99920000000000
H      H      0.91000000000000     0.35570000000000     0.99920000000000
H      H      0.91000000000000     0.85570000000000     0.49920000000000
H      H      0.89430000000000     0.66000000000000     0.74920000000000
H      H      0.89430000000000     0.16000000000000     0.24920000000000
H      H      0.39430000000000     0.66000000000000     0.24920000000000
H      H      0.39430000000000     0.16000000000000     0.74920000000000
H      H      0.59000000000000     0.14430000000000     0.99920000000000
H      H      0.59000000000000     0.64430000000000     0.49920000000000
H      H      0.09000000000000     0.14430000000000     0.49920000000000
H      H      0.09000000000000     0.64430000000000     0.99920000000000
H      H      0.10570000000000     0.84000000000000     0.24920000000000
H      H      0.10570000000000     0.34000000000000     0.74920000000000
H      H      0.60570000000000     0.84000000000000     0.74920000000000
H      H      0.60570000000000     0.34000000000000     0.24920000000000
H      H      0.41000000000000     0.64430000000000     0.50080000000000
H      H      0.41000000000000     0.14430000000000     0.00080000000000
H      H      0.91000000000000     0.64430000000000     0.00080000000000
H      H      0.91000000000000     0.14430000000000     0.50080000000000
H      H      0.60570000000000     0.66000000000000     0.75080000000000
H      H      0.60570000000000     0.16000000000000     0.25080000000000
H      H      0.10570000000000     0.66000000000000     0.25080000000000
H      H      0.10570000000000     0.16000000000000     0.75080000000000
H      H      0.59000000000000     0.85570000000000     0.00080000000000
H      H      0.59000000000000     0.35570000000000     0.50080000000000
H      H      0.09000000000000     0.85570000000000     0.50080000000000
H      H      0.09000000000000     0.35570000000000     0.00080000000000
H      H      0.39430000000000     0.84000000000000     0.25080000000000
H      H      0.39430000000000     0.34000000000000     0.75080000000000
H      H      0.89430000000000     0.84000000000000     0.75080000000000
H      H      0.89430000000000     0.34000000000000     0.25080000000000
H      H      0.49920000000000     0.41000000000000     0.35570000000000
H      H      0.49920000000000     0.91000000000000     0.85570000000000
H      H      0.99920000000000     0.41000000000000     0.85570000000000
H      H      0.99920000000000     0.91000000000000     0.35570000000000
H      H      0.99920000000000     0.59000000000000     0.14430000000000
H      H      0.99920000000000     0.09000000000000     0.64430000000000
H      H      0.49920000000000     0.59000000000000     0.64430000000000
H      H      0.49920000000000     0.09000000000000     0.14430000000000
H      H      0.66000000000000     0.24920000000000     0.39430000000000
H      H      0.66000000000000     0.74920000000000     0.89430000000000
H      H      0.16000000000000     0.24920000000000     0.89430000000000
H      H      0.16000000000000     0.74920000000000     0.39430000000000
H      H      0.00080000000000     0.91000000000000     0.64430000000000
H      H      0.00080000000000     0.41000000000000     0.14430000000000
H      H      0.50080000000000     0.91000000000000     0.14430000000000
H      H      0.50080000000000     0.41000000000000     0.64430000000000
H      H      0.84000000000000     0.75080000000000     0.89430000000000
H      H      0.84000000000000     0.25080000000000     0.39430000000000
H      H      0.34000000000000     0.75080000000000     0.39430000000000
H      H      0.34000000000000     0.25080000000000     0.89430000000000
H      H      0.50080000000000     0.59000000000000     0.35570000000000
H      H      0.50080000000000     0.09000000000000     0.85570000000000
H      H      0.00080000000000     0.59000000000000     0.85570000000000
H      H      0.00080000000000     0.09000000000000     0.35570000000000
H      H      0.66000000000000     0.25080000000000     0.10570000000000
H      H      0.66000000000000     0.75080000000000     0.60570000000000
H      H      0.16000000000000     0.25080000000000     0.60570000000000
H      H      0.16000000000000     0.75080000000000     0.10570000000000
H      H      0.34000000000000     0.24920000000000     0.60570000000000
H      H      0.34000000000000     0.74920000000000     0.10570000000000
H      H      0.84000000000000     0.24920000000000     0.10570000000000
H      H      0.84000000000000     0.74920000000000     0.60570000000000
O      O      0.12500000000000     0.01382000000000     0.23618000000000
O      O      0.12500000000000     0.51382000000000     0.73618000000000
O      O      0.62500000000000     0.01382000000000     0.73618000000000
O      O      0.62500000000000     0.51382000000000     0.23618000000000
O      O      0.23618000000000     0.37500000000000     0.48618000000000
O      O      0.23618000000000     0.87500000000000     0.98618000000000
O      O      0.73618000000000     0.37500000000000     0.98618000000000
O      O      0.73618000000000     0.87500000000000     0.48618000000000
O      O      0.87500000000000     0.48618000000000     0.73618000000000
O      O      0.87500000000000     0.98618000000000     0.23618000000000
O      O      0.37500000000000     0.48618000000000     0.23618000000000
O      O      0.37500000000000     0.98618000000000     0.73618000000000
O      O      0.76382000000000     0.12500000000000     0.98618000000000
O      O      0.76382000000000     0.62500000000000     0.48618000000000
O      O      0.26382000000000     0.12500000000000     0.48618000000000
O      O      0.26382000000000     0.62500000000000     0.98618000000000
O      O      0.12500000000000     0.98618000000000     0.76382000000000
O      O      0.12500000000000     0.48618000000000     0.26382000000000
O      O      0.62500000000000     0.98618000000000     0.26382000000000
O      O      0.62500000000000     0.48618000000000     0.76382000000000
O      O      0.26382000000000     0.37500000000000     0.01382000000000
O      O      0.26382000000000     0.87500000000000     0.51382000000000
O      O      0.76382000000000     0.37500000000000     0.51382000000000
O      O      0.76382000000000     0.87500000000000     0.01382000000000
O      O      0.87500000000000     0.51382000000000     0.26382000000000
O      O      0.87500000000000     0.01382000000000     0.76382000000000
O      O      0.37500000000000     0.51382000000000     0.76382000000000
O      O      0.37500000000000     0.01382000000000     0.26382000000000
O      O      0.73618000000000     0.12500000000000     0.51382000000000
O      O      0.73618000000000     0.62500000000000     0.01382000000000
O      O      0.23618000000000     0.12500000000000     0.01382000000000
O      O      0.23618000000000     0.62500000000000     0.51382000000000
O      O      0.01382000000000     0.23618000000000     0.12500000000000
O      O      0.01382000000000     0.73618000000000     0.62500000000000
O      O      0.51382000000000     0.23618000000000     0.62500000000000
O      O      0.51382000000000     0.73618000000000     0.12500000000000
O      O      0.51382000000000     0.76382000000000     0.37500000000000
O      O      0.51382000000000     0.26382000000000     0.87500000000000
O      O      0.01382000000000     0.76382000000000     0.87500000000000
O      O      0.01382000000000     0.26382000000000     0.37500000000000
O      O      0.48618000000000     0.76382000000000     0.62500000000000
O      O      0.48618000000000     0.26382000000000     0.12500000000000
O      O      0.98618000000000     0.76382000000000     0.12500000000000
O      O      0.98618000000000     0.26382000000000     0.62500000000000
O      O      0.48618000000000     0.73618000000000     0.87500000000000
O      O      0.48618000000000     0.23618000000000     0.37500000000000
O      O      0.98618000000000     0.73618000000000     0.37500000000000
O      O      0.98618000000000     0.23618000000000     0.87500000000000
O      O      0.12536000000000     0.00000000000000     0.00000000000000
O      O      0.12536000000000     0.50000000000000     0.50000000000000
O      O      0.62536000000000     0.00000000000000     0.50000000000000
O      O      0.62536000000000     0.50000000000000     0.00000000000000
O      O      0.25000000000000     0.37536000000000     0.25000000000000
O      O      0.25000000000000     0.87536000000000     0.75000000000000
O      O      0.75000000000000     0.37536000000000     0.75000000000000
O      O      0.75000000000000     0.87536000000000     0.25000000000000
O      O      0.87464000000000     0.50000000000000     0.50000000000000
O      O      0.87464000000000     0.00000000000000     0.00000000000000
O      O      0.37464000000000     0.50000000000000     0.00000000000000
O      O      0.37464000000000     0.00000000000000     0.50000000000000
O      O      0.75000000000000     0.12464000000000     0.75000000000000
O      O      0.75000000000000     0.62464000000000     0.25000000000000
O      O      0.25000000000000     0.12464000000000     0.25000000000000
O      O      0.25000000000000     0.62464000000000     0.75000000000000
O      O      0.00000000000000     0.12536000000000     0.00000000000000
O      O      0.00000000000000     0.62536000000000     0.50000000000000
O      O      0.50000000000000     0.12536000000000     0.50000000000000
O      O      0.50000000000000     0.62536000000000     0.00000000000000
O      O      0.12464000000000     0.25000000000000     0.25000000000000
O      O      0.12464000000000     0.75000000000000     0.75000000000000
O      O      0.62464000000000     0.25000000000000     0.75000000000000
O      O      0.62464000000000     0.75000000000000     0.25000000000000
O      O      0.00000000000000     0.37464000000000     0.50000000000000
O      O      0.00000000000000     0.87464000000000     0.00000000000000
O      O      0.50000000000000     0.37464000000000     0.00000000000000
O      O      0.50000000000000     0.87464000000000     0.50000000000000
O      O      0.87536000000000     0.25000000000000     0.75000000000000
O      O      0.87536000000000     0.75000000000000     0.25000000000000
O      O      0.37536000000000     0.25000000000000     0.25000000000000
O      O      0.37536000000000     0.75000000000000     0.75000000000000
O      O      0.00000000000000     0.00000000000000     0.12536000000000
O      O      0.00000000000000     0.50000000000000     0.62536000000000
O      O      0.50000000000000     0.00000000000000     0.62536000000000
O      O      0.50000000000000     0.50000000000000     0.12536000000000
O      O      0.50000000000000     0.00000000000000     0.37464000000000
O      O      0.50000000000000     0.50000000000000     0.87464000000000
O      O      0.00000000000000     0.00000000000000     0.87464000000000
O      O      0.00000000000000     0.50000000000000     0.37464000000000
O      O      0.25000000000000     0.75000000000000     0.62464000000000
O      O      0.25000000000000     0.25000000000000     0.12464000000000
O      O      0.75000000000000     0.75000000000000     0.12464000000000
O      O      0.75000000000000     0.25000000000000     0.62464000000000
O      O      0.25000000000000     0.75000000000000     0.87536000000000
O      O      0.25000000000000     0.25000000000000     0.37536000000000
O      O      0.75000000000000     0.75000000000000     0.37536000000000
O      O      0.75000000000000     0.25000000000000     0.87536000000000
B      B      0.41155000000000     0.50025000000000     0.44577000000000
B      B      0.41155000000000     0.00025000000000     0.94577000000000
B      B      0.91155000000000     0.50025000000000     0.94577000000000
B      B      0.91155000000000     0.00025000000000     0.44577000000000
B      B      0.74975000000000     0.66155000000000     0.69577000000000
B      B      0.74975000000000     0.16155000000000     0.19577000000000
B      B      0.24975000000000     0.66155000000000     0.19577000000000
B      B      0.24975000000000     0.16155000000000     0.69577000000000
B      B      0.58845000000000     0.99975000000000     0.94577000000000
B      B      0.58845000000000     0.49975000000000     0.44577000000000
B      B      0.08845000000000     0.99975000000000     0.44577000000000
B      B      0.08845000000000     0.49975000000000     0.94577000000000
B      B      0.25025000000000     0.83845000000000     0.19577000000000
B      B      0.25025000000000     0.33845000000000     0.69577000000000
B      B      0.75025000000000     0.83845000000000     0.69577000000000
B      B      0.75025000000000     0.33845000000000     0.19577000000000
B      B      0.41155000000000     0.49975000000000     0.55423000000000
B      B      0.41155000000000     0.99975000000000     0.05423000000000
B      B      0.91155000000000     0.49975000000000     0.05423000000000
B      B      0.91155000000000     0.99975000000000     0.55423000000000
B      B      0.75025000000000     0.66155000000000     0.80423000000000
B      B      0.75025000000000     0.16155000000000     0.30423000000000
B      B      0.25025000000000     0.66155000000000     0.30423000000000
B      B      0.25025000000000     0.16155000000000     0.80423000000000
B      B      0.58845000000000     0.00025000000000     0.05423000000000
B      B      0.58845000000000     0.50025000000000     0.55423000000000
B      B      0.08845000000000     0.00025000000000     0.55423000000000
B      B      0.08845000000000     0.50025000000000     0.05423000000000
B      B      0.24975000000000     0.83845000000000     0.30423000000000
B      B      0.24975000000000     0.33845000000000     0.80423000000000
B      B      0.74975000000000     0.83845000000000     0.80423000000000
B      B      0.74975000000000     0.33845000000000     0.30423000000000
B      B      0.44577000000000     0.41155000000000     0.50025000000000
B      B      0.44577000000000     0.91155000000000     0.00025000000000
B      B      0.94577000000000     0.41155000000000     0.00025000000000
B      B      0.94577000000000     0.91155000000000     0.50025000000000
B      B      0.83845000000000     0.69577000000000     0.75025000000000
B      B      0.83845000000000     0.19577000000000     0.25025000000000
B      B      0.33845000000000     0.69577000000000     0.25025000000000
B      B      0.33845000000000     0.19577000000000     0.75025000000000
B      B      0.55423000000000     0.08845000000000     0.00025000000000
B      B      0.55423000000000     0.58845000000000     0.50025000000000
B      B      0.05423000000000     0.08845000000000     0.50025000000000
B      B      0.05423000000000     0.58845000000000     0.00025000000000
B      B      0.16155000000000     0.80423000000000     0.25025000000000
B      B      0.16155000000000     0.30423000000000     0.75025000000000
B      B      0.66155000000000     0.80423000000000     0.75025000000000
B      B      0.66155000000000     0.30423000000000     0.25025000000000
B      B      0.44577000000000     0.58845000000000     0.49975000000000
B      B      0.44577000000000     0.08845000000000     0.99975000000000
B      B      0.94577000000000     0.58845000000000     0.99975000000000
B      B      0.94577000000000     0.08845000000000     0.49975000000000
B      B      0.66155000000000     0.69577000000000     0.74975000000000
B      B      0.66155000000000     0.19577000000000     0.24975000000000
B      B      0.16155000000000     0.69577000000000     0.24975000000000
B      B      0.16155000000000     0.19577000000000     0.74975000000000
B      B      0.55423000000000     0.91155000000000     0.99975000000000
B      B      0.55423000000000     0.41155000000000     0.49975000000000
B      B      0.05423000000000     0.91155000000000     0.49975000000000
B      B      0.05423000000000     0.41155000000000     0.99975000000000
B      B      0.33845000000000     0.80423000000000     0.24975000000000
B      B      0.33845000000000     0.30423000000000     0.74975000000000
B      B      0.83845000000000     0.80423000000000     0.74975000000000
B      B      0.83845000000000     0.30423000000000     0.24975000000000
B      B      0.50025000000000     0.44577000000000     0.41155000000000
B      B      0.50025000000000     0.94577000000000     0.91155000000000
B      B      0.00025000000000     0.44577000000000     0.91155000000000
B      B      0.00025000000000     0.94577000000000     0.41155000000000
B      B      0.00025000000000     0.55423000000000     0.08845000000000
B      B      0.00025000000000     0.05423000000000     0.58845000000000
B      B      0.50025000000000     0.55423000000000     0.58845000000000
B      B      0.50025000000000     0.05423000000000     0.08845000000000
B      B      0.69577000000000     0.25025000000000     0.33845000000000
B      B      0.69577000000000     0.75025000000000     0.83845000000000
B      B      0.19577000000000     0.25025000000000     0.83845000000000
B      B      0.19577000000000     0.75025000000000     0.33845000000000
B      B      0.99975000000000     0.94577000000000     0.58845000000000
B      B      0.99975000000000     0.44577000000000     0.08845000000000
B      B      0.49975000000000     0.94577000000000     0.08845000000000
B      B      0.49975000000000     0.44577000000000     0.58845000000000
B      B      0.80423000000000     0.74975000000000     0.83845000000000
B      B      0.80423000000000     0.24975000000000     0.33845000000000
B      B      0.30423000000000     0.74975000000000     0.33845000000000
B      B      0.30423000000000     0.24975000000000     0.83845000000000
B      B      0.49975000000000     0.55423000000000     0.41155000000000
B      B      0.49975000000000     0.05423000000000     0.91155000000000
B      B      0.99975000000000     0.55423000000000     0.91155000000000
B      B      0.99975000000000     0.05423000000000     0.41155000000000
B      B      0.69577000000000     0.24975000000000     0.16155000000000
B      B      0.69577000000000     0.74975000000000     0.66155000000000
B      B      0.19577000000000     0.24975000000000     0.66155000000000
B      B      0.19577000000000     0.74975000000000     0.16155000000000
B      B      0.30423000000000     0.25025000000000     0.66155000000000
B      B      0.30423000000000     0.75025000000000     0.16155000000000
B      B      0.80423000000000     0.25025000000000     0.16155000000000
B      B      0.80423000000000     0.75025000000000     0.66155000000000
