data_stdin
_audit_creation_method 'critic2-4f1eba8'
_cell_length_a        31.3469000000
_cell_length_b        31.3469000000
_cell_length_c        31.3469000000
_cell_angle_alpha        90.0000
_cell_angle_beta        90.0000
_cell_angle_gamma        90.0000
_cell_volume         30802.346030
_space_group_crystal_system cubic
_space_group_IT_number 211
_space_group_name_H-M_alt 'I432'
_space_group_name_Hall 'I 4 2 3'
loop_
_space_group_symop_operation_xyz
  'x,y,z'
  '-y,x,z'
  '-x,-y,z'
  'y,-x,z'
  'x,-y,-z'
  '-y,-x,-z'
  '-x,y,-z'
  'y,x,-z'
  'z,x,y'
  'z,-y,x'
  'z,-x,-y'
  'z,y,-x'
  '-z,x,-y'
  '-z,-y,-x'
  '-z,-x,y'
  '-z,y,x'
  'y,z,x'
  'x,z,-y'
  '-y,z,-x'
  '-x,z,y'
  '-y,-z,x'
  '-x,-z,-y'
  'y,-z,-x'
  'x,-z,y'
  '-1/2+x,-1/2+y,-1/2+z'
  '-1/2-y,-1/2+x,-1/2+z'
  '-1/2-x,-1/2-y,-1/2+z'
  '-1/2+y,-1/2-x,-1/2+z'
  '-1/2+x,-1/2-y,-1/2-z'
  '-1/2-y,-1/2-x,-1/2-z'
  '-1/2-x,-1/2+y,-1/2-z'
  '-1/2+y,-1/2+x,-1/2-z'
  '-1/2+z,-1/2+x,-1/2+y'
  '-1/2+z,-1/2-y,-1/2+x'
  '-1/2+z,-1/2-x,-1/2-y'
  '-1/2+z,-1/2+y,-1/2-x'
  '-1/2-z,-1/2+x,-1/2-y'
  '-1/2-z,-1/2-y,-1/2-x'
  '-1/2-z,-1/2-x,-1/2+y'
  '-1/2-z,-1/2+y,-1/2+x'
  '-1/2+y,-1/2+z,-1/2+x'
  '-1/2+x,-1/2+z,-1/2-y'
  '-1/2-y,-1/2+z,-1/2-x'
  '-1/2-x,-1/2+z,-1/2+y'
  '-1/2-y,-1/2-z,-1/2+x'
  '-1/2-x,-1/2-z,-1/2-y'
  '-1/2+y,-1/2-z,-1/2-x'
  '-1/2+x,-1/2-z,-1/2+y'
loop_
_atom_site_label
_atom_site_type_symbol
_atom_site_fract_x
_atom_site_fract_y
_atom_site_fract_z
C      C      0.84530000000000     0.68760000000000     0.63300000000000
H      H      0.84110000000000     0.71830000000000     0.62840000000000
C      C      0.88690000000000     0.67870000000000     0.65500000000000
H      H      0.88650000000000     0.69080000000000     0.68380000000000
C      C      0.89350000000000     0.63130000000000     0.65720000000000
H      H      0.90460000000000     0.62280000000000     0.62920000000000
C      C      0.85340000000000     0.60600000000000     0.66400000000000
H      H      0.84650000000000     0.61480000000000     0.69320000000000
C      C      0.81430000000000     0.62160000000000     0.64130000000000
H      H      0.82840000000000     0.62460000000000     0.61350000000000
C      C      0.77530000000000     0.60020000000000     0.62360000000000
H      H      0.75990000000000     0.61800000000000     0.60360000000000
H      H      0.78160000000000     0.57270000000000     0.61070000000000
C      C      0.85700000000000     0.53780000000000     0.70480000000000
H      H      0.85900000000000     0.55610000000000     0.73000000000000
C      C      0.90030000000000     0.51740000000000     0.70540000000000
H      H      0.89920000000000     0.50630000000000     0.73470000000000
C      C      0.89940000000000     0.47460000000000     0.68220000000000
H      H      0.89420000000000     0.48260000000000     0.65250000000000
C      C      0.86290000000000     0.44720000000000     0.69250000000000
H      H      0.86830000000000     0.43510000000000     0.72080000000000
C      C      0.82050000000000     0.46930000000000     0.69490000000000
H      H      0.81260000000000     0.47610000000000     0.66550000000000
C      C      0.78030000000000     0.45430000000000     0.71620000000000
H      H      0.76040000000000     0.47790000000000     0.71820000000000
H      H      0.76730000000000     0.43220000000000     0.69890000000000
K      K      0.80730000000000     0.50000000000000     0.80730000000000
O      O      0.92570000000000     0.69100000000000     0.63320000000000
H      H      0.94550000000000     0.67590000000000     0.64140000000000
O      O      0.92870000000000     0.62710000000000     0.68680000000000
H      H      0.92920000000000     0.60280000000000     0.69640000000000
O      O      0.87480000000000     0.56590000000000     0.67260000000000
O      O      0.80630000000000     0.66690000000000     0.64650000000000
O      O      0.75390000000000     0.59630000000000     0.66440000000000
H      H      0.74490000000000     0.57190000000000     0.66730000000000
O      O      0.94660000000000     0.52630000000000     0.70360000000000
H      H      0.95980000000000     0.50600000000000     0.71360000000000
O      O      0.93870000000000     0.45020000000000     0.67980000000000
H      H      0.94030000000000     0.43420000000000     0.70050000000000
O      O      0.85960000000000     0.41170000000000     0.66310000000000
O      O      0.82240000000000     0.50990000000000     0.71720000000000
O      O      0.78830000000000     0.43760000000000     0.75860000000000
H      H      0.78140000000000     0.41240000000000     0.75950000000000
O      O      0.96400000000000     0.46400000000000     0.75000000000000
