data_stdin
_cell_volume           551.973381
_symmetry_space_group_name_H-M 'P 1'
_symmetry_Int_Tables_number 1
loop_
_symmetry_equiv_pos_site_id
_symmetry_equiv_pos_as_xyz
1 x,y,z
_cell_length_a         8.2030000000
_cell_length_b         8.2030000000
_cell_length_c         8.2030000000
_cell_angle_alpha        90.0000
_cell_angle_beta        90.0000
_cell_angle_gamma        90.0000
_cell_formula_units_Z 1
loop_
_atom_site_label
_atom_site_type_symbol
_atom_site_fract_x
_atom_site_fract_y
_atom_site_fract_z
Li     Li     0.62500000000000     0.62500000000000     0.62500000000000
Li     Li     0.37500000000000     0.12500000000000     0.87500000000000
Li     Li     0.12500000000000     0.87500000000000     0.37500000000000
Li     Li     0.87500000000000     0.37500000000000     0.12500000000000
Ga     Ga     0.12500000000000     0.37500000000000     0.87500000000000
Ga     Ga     0.12500000000000     0.62500000000000     0.12500000000000
Ga     Ga     0.62500000000000     0.37500000000000     0.37500000000000
Ga     Ga     0.87500000000000     0.87500000000000     0.62500000000000
Ga     Ga     0.62500000000000     0.12500000000000     0.12500000000000
Ga     Ga     0.87500000000000     0.62500000000000     0.87500000000000
Ga     Ga     0.37500000000000     0.37500000000000     0.62500000000000
Ga     Ga     0.37500000000000     0.87500000000000     0.12500000000000
Ga     Ga     0.87500000000000     0.12500000000000     0.37500000000000
Ga     Ga     0.62500000000000     0.87500000000000     0.87500000000000
Ga     Ga     0.12500000000000     0.12500000000000     0.62500000000000
Ga     Ga     0.37500000000000     0.62500000000000     0.37500000000000
Ga     Ga     0.00000000000000     0.00000000000000     0.00000000000000
Ga     Ga     0.00000000000000     0.50000000000000     0.50000000000000
Ga     Ga     0.75000000000000     0.25000000000000     0.75000000000000
Ga     Ga     0.25000000000000     0.25000000000000     0.25000000000000
Ga     Ga     0.50000000000000     0.00000000000000     0.50000000000000
Ga     Ga     0.50000000000000     0.50000000000000     0.00000000000000
Ga     Ga     0.75000000000000     0.75000000000000     0.25000000000000
Ga     Ga     0.25000000000000     0.75000000000000     0.75000000000000
O      O      0.37500000000000     0.37500000000000     0.37500000000000
O      O      0.62500000000000     0.87500000000000     0.12500000000000
O      O      0.37500000000000     0.62500000000000     0.12500000000000
O      O      0.87500000000000     0.87500000000000     0.87500000000000
O      O      0.12500000000000     0.62500000000000     0.87500000000000
O      O      0.87500000000000     0.12500000000000     0.62500000000000
O      O      0.12500000000000     0.37500000000000     0.62500000000000
O      O      0.62500000000000     0.12500000000000     0.37500000000000
O      O      0.12500000000000     0.12500000000000     0.37500000000000
O      O      0.62500000000000     0.62500000000000     0.37500000000000
O      O      0.87500000000000     0.87500000000000     0.37500000000000
O      O      0.87500000000000     0.62500000000000     0.12500000000000
O      O      0.62500000000000     0.62500000000000     0.87500000000000
O      O      0.37500000000000     0.37500000000000     0.87500000000000
O      O      0.62500000000000     0.37500000000000     0.12500000000000
O      O      0.12500000000000     0.87500000000000     0.12500000000000
O      O      0.87500000000000     0.12500000000000     0.12500000000000
O      O      0.12500000000000     0.12500000000000     0.87500000000000
O      O      0.12500000000000     0.87500000000000     0.62500000000000
O      O      0.37500000000000     0.62500000000000     0.62500000000000
O      O      0.37500000000000     0.87500000000000     0.87500000000000
O      O      0.87500000000000     0.37500000000000     0.87500000000000
O      O      0.62500000000000     0.12500000000000     0.87500000000000
O      O      0.62500000000000     0.37500000000000     0.62500000000000
O      O      0.87500000000000     0.37500000000000     0.37500000000000
O      O      0.12500000000000     0.62500000000000     0.37500000000000
O      O      0.87500000000000     0.62500000000000     0.62500000000000
O      O      0.37500000000000     0.12500000000000     0.62500000000000
O      O      0.62500000000000     0.87500000000000     0.62500000000000
O      O      0.37500000000000     0.87500000000000     0.37500000000000
O      O      0.37500000000000     0.12500000000000     0.12500000000000
O      O      0.12500000000000     0.37500000000000     0.12500000000000
