data_stdin
_cell_volume           156.695430
_symmetry_space_group_name_H-M 'P 1'
_symmetry_Int_Tables_number 1
loop_
_symmetry_equiv_pos_site_id
_symmetry_equiv_pos_as_xyz
1 x,y,z
_cell_length_a         5.3912000000
_cell_length_b         5.3912000000
_cell_length_c         5.3912000000
_cell_angle_alpha        90.0000
_cell_angle_beta        90.0000
_cell_angle_gamma        90.0000
_cell_formula_units_Z 1
loop_
_atom_site_label
_atom_site_type_symbol
_atom_site_fract_x
_atom_site_fract_y
_atom_site_fract_z
Cu     Cu     0.50000000000000     0.00000000000000     0.00000000000000
Cu     Cu     0.00000000000000     0.50000000000000     0.00000000000000
Cu     Cu     0.00000000000000     0.00000000000000     0.50000000000000
V      V      0.00000000000000     0.00000000000000     0.00000000000000
S      S      0.23720000000000     0.23720000000000     0.23720000000000
S      S      0.76280000000000     0.23720000000000     0.76280000000000
S      S      0.23720000000000     0.76280000000000     0.76280000000000
S      S      0.76280000000000     0.76280000000000     0.23720000000000
