data_stdin
_cell_volume           703.544181
_symmetry_space_group_name_H-M 'P 1'
_symmetry_Int_Tables_number 1
loop_
_symmetry_equiv_pos_site_id
_symmetry_equiv_pos_as_xyz
1 x,y,z
_cell_length_a         8.8940000000
_cell_length_b         8.8940000000
_cell_length_c         8.8940000000
_cell_angle_alpha        90.0000
_cell_angle_beta        90.0000
_cell_angle_gamma        90.0000
_cell_formula_units_Z 1
loop_
_atom_site_label
_atom_site_type_symbol
_atom_site_fract_x
_atom_site_fract_y
_atom_site_fract_z
Mn     Mn     0.00000000000000     0.00000000000000     0.00000000000000
Mn     Mn     0.50000000000000     0.50000000000000     0.50000000000000
Mn     Mn     0.31700000000000     0.31700000000000     0.31700000000000
Mn     Mn     0.81700000000000     0.81700000000000     0.81700000000000
Mn     Mn     0.68300000000000     0.31700000000000     0.68300000000000
Mn     Mn     0.18300000000000     0.81700000000000     0.18300000000000
Mn     Mn     0.31700000000000     0.68300000000000     0.68300000000000
Mn     Mn     0.81700000000000     0.18300000000000     0.18300000000000
Mn     Mn     0.68300000000000     0.68300000000000     0.31700000000000
Mn     Mn     0.18300000000000     0.18300000000000     0.81700000000000
Mn     Mn     0.35600000000000     0.35600000000000     0.04200000000000
Mn     Mn     0.85600000000000     0.85600000000000     0.54200000000000
Mn     Mn     0.95800000000000     0.35600000000000     0.64400000000000
Mn     Mn     0.45800000000000     0.85600000000000     0.14400000000000
Mn     Mn     0.64400000000000     0.04200000000000     0.64400000000000
Mn     Mn     0.14400000000000     0.54200000000000     0.14400000000000
Mn     Mn     0.64400000000000     0.35600000000000     0.95800000000000
Mn     Mn     0.14400000000000     0.85600000000000     0.45800000000000
Mn     Mn     0.35600000000000     0.95800000000000     0.64400000000000
Mn     Mn     0.85600000000000     0.45800000000000     0.14400000000000
Mn     Mn     0.04200000000000     0.64400000000000     0.64400000000000
Mn     Mn     0.54200000000000     0.14400000000000     0.14400000000000
Mn     Mn     0.35600000000000     0.64400000000000     0.95800000000000
Mn     Mn     0.85600000000000     0.14400000000000     0.45800000000000
Mn     Mn     0.35600000000000     0.04200000000000     0.35600000000000
Mn     Mn     0.85600000000000     0.54200000000000     0.85600000000000
Mn     Mn     0.04200000000000     0.35600000000000     0.35600000000000
Mn     Mn     0.54200000000000     0.85600000000000     0.85600000000000
Mn     Mn     0.95800000000000     0.64400000000000     0.35600000000000
Mn     Mn     0.45800000000000     0.14400000000000     0.85600000000000
Mn     Mn     0.64400000000000     0.95800000000000     0.35600000000000
Mn     Mn     0.14400000000000     0.45800000000000     0.85600000000000
Mn     Mn     0.64400000000000     0.64400000000000     0.04200000000000
Mn     Mn     0.14400000000000     0.14400000000000     0.54200000000000
Mn     Mn     0.08900000000000     0.08900000000000     0.27800000000000
Mn     Mn     0.58900000000000     0.58900000000000     0.77800000000000
Mn     Mn     0.72200000000000     0.08900000000000     0.91100000000000
Mn     Mn     0.22200000000000     0.58900000000000     0.41100000000000
Mn     Mn     0.91100000000000     0.27800000000000     0.91100000000000
Mn     Mn     0.41100000000000     0.77800000000000     0.41100000000000
Mn     Mn     0.91100000000000     0.08900000000000     0.72200000000000
Mn     Mn     0.41100000000000     0.58900000000000     0.22200000000000
Mn     Mn     0.08900000000000     0.72200000000000     0.91100000000000
Mn     Mn     0.58900000000000     0.22200000000000     0.41100000000000
Mn     Mn     0.27800000000000     0.91100000000000     0.91100000000000
Mn     Mn     0.77800000000000     0.41100000000000     0.41100000000000
Mn     Mn     0.08900000000000     0.91100000000000     0.72200000000000
Mn     Mn     0.58900000000000     0.41100000000000     0.22200000000000
Mn     Mn     0.08900000000000     0.27800000000000     0.08900000000000
Mn     Mn     0.58900000000000     0.77800000000000     0.58900000000000
Mn     Mn     0.27800000000000     0.08900000000000     0.08900000000000
Mn     Mn     0.77800000000000     0.58900000000000     0.58900000000000
Mn     Mn     0.72200000000000     0.91100000000000     0.08900000000000
Mn     Mn     0.22200000000000     0.41100000000000     0.58900000000000
Mn     Mn     0.91100000000000     0.72200000000000     0.08900000000000
Mn     Mn     0.41100000000000     0.22200000000000     0.58900000000000
Mn     Mn     0.91100000000000     0.91100000000000     0.27800000000000
Mn     Mn     0.41100000000000     0.41100000000000     0.77800000000000
