data_stdin
_cell_volume          1771.561000
_symmetry_space_group_name_H-M 'P 1'
_symmetry_Int_Tables_number 1
loop_
_symmetry_equiv_pos_site_id
_symmetry_equiv_pos_as_xyz
1 x,y,z
_cell_length_a        12.1000000000
_cell_length_b        12.1000000000
_cell_length_c        12.1000000000
_cell_angle_alpha        90.0000
_cell_angle_beta        90.0000
_cell_angle_gamma        90.0000
_cell_formula_units_Z 1
loop_
_atom_site_label
_atom_site_type_symbol
_atom_site_fract_x
_atom_site_fract_y
_atom_site_fract_z
Mg     Mg     0.25000000000000     0.25000000000000     0.00000000000000
Mg     Mg     0.25000000000000     0.75000000000000     0.50000000000000
Mg     Mg     0.75000000000000     0.25000000000000     0.50000000000000
Mg     Mg     0.75000000000000     0.75000000000000     0.00000000000000
Mg     Mg     0.00000000000000     0.25000000000000     0.75000000000000
Mg     Mg     0.00000000000000     0.75000000000000     0.25000000000000
Mg     Mg     0.50000000000000     0.25000000000000     0.25000000000000
Mg     Mg     0.50000000000000     0.75000000000000     0.75000000000000
Mg     Mg     0.75000000000000     0.00000000000000     0.75000000000000
Mg     Mg     0.75000000000000     0.50000000000000     0.25000000000000
Mg     Mg     0.25000000000000     0.00000000000000     0.25000000000000
Mg     Mg     0.25000000000000     0.50000000000000     0.75000000000000
Mg     Mg     0.75000000000000     0.25000000000000     0.00000000000000
Mg     Mg     0.75000000000000     0.75000000000000     0.50000000000000
Mg     Mg     0.25000000000000     0.25000000000000     0.50000000000000
Mg     Mg     0.25000000000000     0.75000000000000     0.00000000000000
Mg     Mg     0.25000000000000     0.00000000000000     0.75000000000000
Mg     Mg     0.25000000000000     0.50000000000000     0.25000000000000
Mg     Mg     0.75000000000000     0.00000000000000     0.25000000000000
Mg     Mg     0.75000000000000     0.50000000000000     0.75000000000000
Mg     Mg     0.00000000000000     0.75000000000000     0.75000000000000
Mg     Mg     0.00000000000000     0.25000000000000     0.25000000000000
Mg     Mg     0.50000000000000     0.75000000000000     0.25000000000000
Mg     Mg     0.50000000000000     0.25000000000000     0.75000000000000
B      B      0.25000000000000     0.00000000000000     0.00000000000000
B      B      0.25000000000000     0.50000000000000     0.50000000000000
B      B      0.75000000000000     0.00000000000000     0.50000000000000
B      B      0.75000000000000     0.50000000000000     0.00000000000000
B      B      0.00000000000000     0.25000000000000     0.00000000000000
B      B      0.00000000000000     0.75000000000000     0.50000000000000
B      B      0.50000000000000     0.25000000000000     0.50000000000000
B      B      0.50000000000000     0.75000000000000     0.00000000000000
B      B      0.00000000000000     0.00000000000000     0.75000000000000
B      B      0.00000000000000     0.50000000000000     0.25000000000000
B      B      0.50000000000000     0.00000000000000     0.25000000000000
B      B      0.50000000000000     0.50000000000000     0.75000000000000
B      B      0.75000000000000     0.00000000000000     0.00000000000000
B      B      0.75000000000000     0.50000000000000     0.50000000000000
B      B      0.25000000000000     0.00000000000000     0.50000000000000
B      B      0.25000000000000     0.50000000000000     0.00000000000000
B      B      0.00000000000000     0.00000000000000     0.25000000000000
B      B      0.00000000000000     0.50000000000000     0.75000000000000
B      B      0.50000000000000     0.00000000000000     0.75000000000000
B      B      0.50000000000000     0.50000000000000     0.25000000000000
B      B      0.00000000000000     0.25000000000000     0.50000000000000
B      B      0.00000000000000     0.75000000000000     0.00000000000000
B      B      0.50000000000000     0.25000000000000     0.00000000000000
B      B      0.50000000000000     0.75000000000000     0.50000000000000
B      B      0.08500000000000     0.08500000000000     0.08500000000000
B      B      0.08500000000000     0.58500000000000     0.58500000000000
B      B      0.58500000000000     0.08500000000000     0.58500000000000
B      B      0.58500000000000     0.58500000000000     0.08500000000000
B      B      0.91500000000000     0.08500000000000     0.91500000000000
B      B      0.91500000000000     0.58500000000000     0.41500000000000
B      B      0.41500000000000     0.08500000000000     0.41500000000000
B      B      0.41500000000000     0.58500000000000     0.91500000000000
B      B      0.08500000000000     0.91500000000000     0.41500000000000
B      B      0.08500000000000     0.41500000000000     0.91500000000000
B      B      0.58500000000000     0.91500000000000     0.91500000000000
B      B      0.58500000000000     0.41500000000000     0.41500000000000
B      B      0.08500000000000     0.08500000000000     0.58500000000000
B      B      0.08500000000000     0.58500000000000     0.08500000000000
B      B      0.58500000000000     0.08500000000000     0.08500000000000
B      B      0.58500000000000     0.58500000000000     0.58500000000000
B      B      0.91500000000000     0.91500000000000     0.08500000000000
B      B      0.91500000000000     0.41500000000000     0.58500000000000
B      B      0.41500000000000     0.91500000000000     0.58500000000000
B      B      0.41500000000000     0.41500000000000     0.08500000000000
B      B      0.08500000000000     0.91500000000000     0.91500000000000
B      B      0.08500000000000     0.41500000000000     0.41500000000000
B      B      0.58500000000000     0.91500000000000     0.41500000000000
B      B      0.58500000000000     0.41500000000000     0.91500000000000
B      B      0.91500000000000     0.08500000000000     0.41500000000000
B      B      0.91500000000000     0.58500000000000     0.91500000000000
B      B      0.41500000000000     0.08500000000000     0.91500000000000
B      B      0.41500000000000     0.58500000000000     0.41500000000000
B      B      0.91500000000000     0.91500000000000     0.58500000000000
B      B      0.91500000000000     0.41500000000000     0.08500000000000
B      B      0.41500000000000     0.91500000000000     0.08500000000000
B      B      0.41500000000000     0.41500000000000     0.58500000000000
O      O      0.00000000000000     0.00000000000000     0.00000000000000
O      O      0.00000000000000     0.50000000000000     0.50000000000000
O      O      0.50000000000000     0.00000000000000     0.50000000000000
O      O      0.50000000000000     0.50000000000000     0.00000000000000
O      O      0.00000000000000     0.00000000000000     0.50000000000000
O      O      0.00000000000000     0.50000000000000     0.00000000000000
O      O      0.50000000000000     0.00000000000000     0.00000000000000
O      O      0.50000000000000     0.50000000000000     0.50000000000000
O      O      0.02100000000000     0.09800000000000     0.18000000000000
O      O      0.02100000000000     0.59800000000000     0.68000000000000
O      O      0.52100000000000     0.09800000000000     0.68000000000000
O      O      0.52100000000000     0.59800000000000     0.18000000000000
O      O      0.82000000000000     0.02100000000000     0.90200000000000
O      O      0.82000000000000     0.52100000000000     0.40200000000000
O      O      0.32000000000000     0.02100000000000     0.40200000000000
O      O      0.32000000000000     0.52100000000000     0.90200000000000
O      O      0.90200000000000     0.18000000000000     0.97900000000000
O      O      0.90200000000000     0.68000000000000     0.47900000000000
O      O      0.40200000000000     0.18000000000000     0.47900000000000
O      O      0.40200000000000     0.68000000000000     0.97900000000000
O      O      0.97900000000000     0.09800000000000     0.82000000000000
O      O      0.97900000000000     0.59800000000000     0.32000000000000
O      O      0.47900000000000     0.09800000000000     0.32000000000000
O      O      0.47900000000000     0.59800000000000     0.82000000000000
O      O      0.02100000000000     0.82000000000000     0.40200000000000
O      O      0.02100000000000     0.32000000000000     0.90200000000000
O      O      0.52100000000000     0.82000000000000     0.90200000000000
O      O      0.52100000000000     0.32000000000000     0.40200000000000
O      O      0.18000000000000     0.90200000000000     0.47900000000000
O      O      0.18000000000000     0.40200000000000     0.97900000000000
O      O      0.68000000000000     0.90200000000000     0.97900000000000
O      O      0.68000000000000     0.40200000000000     0.47900000000000
O      O      0.09800000000000     0.97900000000000     0.32000000000000
O      O      0.09800000000000     0.47900000000000     0.82000000000000
O      O      0.59800000000000     0.97900000000000     0.82000000000000
O      O      0.59800000000000     0.47900000000000     0.32000000000000
O      O      0.02100000000000     0.18000000000000     0.59800000000000
O      O      0.02100000000000     0.68000000000000     0.09800000000000
O      O      0.52100000000000     0.18000000000000     0.09800000000000
O      O      0.52100000000000     0.68000000000000     0.59800000000000
O      O      0.18000000000000     0.09800000000000     0.52100000000000
O      O      0.18000000000000     0.59800000000000     0.02100000000000
O      O      0.68000000000000     0.09800000000000     0.02100000000000
O      O      0.68000000000000     0.59800000000000     0.52100000000000
O      O      0.09800000000000     0.02100000000000     0.68000000000000
O      O      0.09800000000000     0.52100000000000     0.18000000000000
O      O      0.59800000000000     0.02100000000000     0.18000000000000
O      O      0.59800000000000     0.52100000000000     0.68000000000000
O      O      0.82000000000000     0.97900000000000     0.09800000000000
O      O      0.82000000000000     0.47900000000000     0.59800000000000
O      O      0.32000000000000     0.97900000000000     0.59800000000000
O      O      0.32000000000000     0.47900000000000     0.09800000000000
O      O      0.90200000000000     0.82000000000000     0.02100000000000
O      O      0.90200000000000     0.32000000000000     0.52100000000000
O      O      0.40200000000000     0.82000000000000     0.52100000000000
O      O      0.40200000000000     0.32000000000000     0.02100000000000
O      O      0.97900000000000     0.90200000000000     0.18000000000000
O      O      0.97900000000000     0.40200000000000     0.68000000000000
O      O      0.47900000000000     0.90200000000000     0.68000000000000
O      O      0.47900000000000     0.40200000000000     0.18000000000000
O      O      0.18000000000000     0.97900000000000     0.90200000000000
O      O      0.18000000000000     0.47900000000000     0.40200000000000
O      O      0.68000000000000     0.97900000000000     0.40200000000000
O      O      0.68000000000000     0.47900000000000     0.90200000000000
O      O      0.09800000000000     0.82000000000000     0.97900000000000
O      O      0.09800000000000     0.32000000000000     0.47900000000000
O      O      0.59800000000000     0.82000000000000     0.47900000000000
O      O      0.59800000000000     0.32000000000000     0.97900000000000
O      O      0.02100000000000     0.90200000000000     0.82000000000000
O      O      0.02100000000000     0.40200000000000     0.32000000000000
O      O      0.52100000000000     0.90200000000000     0.32000000000000
O      O      0.52100000000000     0.40200000000000     0.82000000000000
O      O      0.97900000000000     0.18000000000000     0.40200000000000
O      O      0.97900000000000     0.68000000000000     0.90200000000000
O      O      0.47900000000000     0.18000000000000     0.90200000000000
O      O      0.47900000000000     0.68000000000000     0.40200000000000
O      O      0.82000000000000     0.09800000000000     0.47900000000000
O      O      0.82000000000000     0.59800000000000     0.97900000000000
O      O      0.32000000000000     0.09800000000000     0.97900000000000
O      O      0.32000000000000     0.59800000000000     0.47900000000000
O      O      0.90200000000000     0.02100000000000     0.32000000000000
O      O      0.90200000000000     0.52100000000000     0.82000000000000
O      O      0.40200000000000     0.02100000000000     0.82000000000000
O      O      0.40200000000000     0.52100000000000     0.32000000000000
O      O      0.97900000000000     0.82000000000000     0.59800000000000
O      O      0.97900000000000     0.32000000000000     0.09800000000000
O      O      0.47900000000000     0.82000000000000     0.09800000000000
O      O      0.47900000000000     0.32000000000000     0.59800000000000
O      O      0.82000000000000     0.90200000000000     0.52100000000000
O      O      0.82000000000000     0.40200000000000     0.02100000000000
O      O      0.32000000000000     0.90200000000000     0.02100000000000
O      O      0.32000000000000     0.40200000000000     0.52100000000000
O      O      0.90200000000000     0.97900000000000     0.68000000000000
O      O      0.90200000000000     0.47900000000000     0.18000000000000
O      O      0.40200000000000     0.97900000000000     0.18000000000000
O      O      0.40200000000000     0.47900000000000     0.68000000000000
O      O      0.18000000000000     0.02100000000000     0.09800000000000
O      O      0.18000000000000     0.52100000000000     0.59800000000000
O      O      0.68000000000000     0.02100000000000     0.59800000000000
O      O      0.68000000000000     0.52100000000000     0.09800000000000
O      O      0.09800000000000     0.18000000000000     0.02100000000000
O      O      0.09800000000000     0.68000000000000     0.52100000000000
O      O      0.59800000000000     0.18000000000000     0.52100000000000
O      O      0.59800000000000     0.68000000000000     0.02100000000000
Cl     Cl     0.25000000000000     0.25000000000000     0.25000000000000
Cl     Cl     0.25000000000000     0.75000000000000     0.75000000000000
Cl     Cl     0.75000000000000     0.25000000000000     0.75000000000000
Cl     Cl     0.75000000000000     0.75000000000000     0.25000000000000
Cl     Cl     0.25000000000000     0.75000000000000     0.25000000000000
Cl     Cl     0.25000000000000     0.25000000000000     0.75000000000000
Cl     Cl     0.75000000000000     0.75000000000000     0.75000000000000
Cl     Cl     0.75000000000000     0.25000000000000     0.25000000000000
