data_stdin
_cell_volume           887.780766
_symmetry_space_group_name_H-M 'P 1'
_symmetry_Int_Tables_number 1
loop_
_symmetry_equiv_pos_site_id
_symmetry_equiv_pos_as_xyz
1 x,y,z
_cell_length_a         9.6110000000
_cell_length_b         9.6110000000
_cell_length_c         9.6110000000
_cell_angle_alpha        90.0000
_cell_angle_beta        90.0000
_cell_angle_gamma        90.0000
_cell_formula_units_Z 1
loop_
_atom_site_label
_atom_site_type_symbol
_atom_site_fract_x
_atom_site_fract_y
_atom_site_fract_z
As     As     0.97000000000000     0.97000000000000     0.97000000000000
As     As     0.47000000000000     0.47000000000000     0.47000000000000
As     As     0.53000000000000     0.97000000000000     0.03000000000000
As     As     0.03000000000000     0.47000000000000     0.53000000000000
As     As     0.22000000000000     0.78000000000000     0.28000000000000
As     As     0.72000000000000     0.28000000000000     0.78000000000000
As     As     0.22000000000000     0.22000000000000     0.22000000000000
As     As     0.72000000000000     0.72000000000000     0.72000000000000
As     As     0.03000000000000     0.53000000000000     0.97000000000000
As     As     0.53000000000000     0.03000000000000     0.47000000000000
As     As     0.47000000000000     0.53000000000000     0.03000000000000
As     As     0.97000000000000     0.03000000000000     0.53000000000000
As     As     0.78000000000000     0.72000000000000     0.28000000000000
As     As     0.28000000000000     0.22000000000000     0.78000000000000
As     As     0.78000000000000     0.28000000000000     0.22000000000000
As     As     0.28000000000000     0.78000000000000     0.72000000000000
Cu     Cu     0.97000000000000     0.12000000000000     0.20000000000000
Cu     Cu     0.47000000000000     0.62000000000000     0.70000000000000
Cu     Cu     0.30000000000000     0.97000000000000     0.88000000000000
Cu     Cu     0.80000000000000     0.47000000000000     0.38000000000000
Cu     Cu     0.38000000000000     0.20000000000000     0.03000000000000
Cu     Cu     0.88000000000000     0.70000000000000     0.53000000000000
Cu     Cu     0.53000000000000     0.12000000000000     0.80000000000000
Cu     Cu     0.03000000000000     0.62000000000000     0.30000000000000
Cu     Cu     0.22000000000000     0.55000000000000     0.13000000000000
Cu     Cu     0.72000000000000     0.05000000000000     0.63000000000000
Cu     Cu     0.45000000000000     0.63000000000000     0.28000000000000
Cu     Cu     0.95000000000000     0.13000000000000     0.78000000000000
Cu     Cu     0.37000000000000     0.78000000000000     0.05000000000000
Cu     Cu     0.87000000000000     0.28000000000000     0.55000000000000
Cu     Cu     0.22000000000000     0.45000000000000     0.37000000000000
Cu     Cu     0.72000000000000     0.95000000000000     0.87000000000000
Cu     Cu     0.45000000000000     0.37000000000000     0.22000000000000
Cu     Cu     0.95000000000000     0.87000000000000     0.72000000000000
Cu     Cu     0.37000000000000     0.22000000000000     0.45000000000000
Cu     Cu     0.87000000000000     0.72000000000000     0.95000000000000
Cu     Cu     0.80000000000000     0.53000000000000     0.12000000000000
Cu     Cu     0.30000000000000     0.03000000000000     0.62000000000000
Cu     Cu     0.88000000000000     0.30000000000000     0.97000000000000
Cu     Cu     0.38000000000000     0.80000000000000     0.47000000000000
Cu     Cu     0.03000000000000     0.38000000000000     0.20000000000000
Cu     Cu     0.53000000000000     0.88000000000000     0.70000000000000
Cu     Cu     0.70000000000000     0.53000000000000     0.88000000000000
Cu     Cu     0.20000000000000     0.03000000000000     0.38000000000000
Cu     Cu     0.62000000000000     0.30000000000000     0.03000000000000
Cu     Cu     0.12000000000000     0.80000000000000     0.53000000000000
Cu     Cu     0.47000000000000     0.38000000000000     0.80000000000000
Cu     Cu     0.97000000000000     0.88000000000000     0.30000000000000
Cu     Cu     0.78000000000000     0.95000000000000     0.13000000000000
Cu     Cu     0.28000000000000     0.45000000000000     0.63000000000000
Cu     Cu     0.55000000000000     0.87000000000000     0.28000000000000
Cu     Cu     0.05000000000000     0.37000000000000     0.78000000000000
Cu     Cu     0.63000000000000     0.72000000000000     0.05000000000000
Cu     Cu     0.13000000000000     0.22000000000000     0.55000000000000
Cu     Cu     0.78000000000000     0.05000000000000     0.37000000000000
Cu     Cu     0.28000000000000     0.55000000000000     0.87000000000000
Cu     Cu     0.55000000000000     0.13000000000000     0.22000000000000
Cu     Cu     0.05000000000000     0.63000000000000     0.72000000000000
Cu     Cu     0.63000000000000     0.28000000000000     0.45000000000000
Cu     Cu     0.13000000000000     0.78000000000000     0.95000000000000
Cu     Cu     0.20000000000000     0.97000000000000     0.12000000000000
Cu     Cu     0.70000000000000     0.47000000000000     0.62000000000000
Cu     Cu     0.12000000000000     0.20000000000000     0.97000000000000
Cu     Cu     0.62000000000000     0.70000000000000     0.47000000000000
