data_stdin
_cell_volume          1082.573969
_symmetry_space_group_name_H-M 'P 1'
_symmetry_Int_Tables_number 1
loop_
_symmetry_equiv_pos_site_id
_symmetry_equiv_pos_as_xyz
1 x,y,z
_cell_length_a        10.2680000000
_cell_length_b        10.2680000000
_cell_length_c        10.2680000000
_cell_angle_alpha        90.0000
_cell_angle_beta        90.0000
_cell_angle_gamma        90.0000
_cell_formula_units_Z 1
loop_
_atom_site_label
_atom_site_type_symbol
_atom_site_fract_x
_atom_site_fract_y
_atom_site_fract_z
U      U      0.25000000000000     0.25000000000000     0.25000000000000
U      U      0.25000000000000     0.75000000000000     0.75000000000000
U      U      0.75000000000000     0.25000000000000     0.75000000000000
U      U      0.75000000000000     0.75000000000000     0.25000000000000
U      U      0.25000000000000     0.75000000000000     0.25000000000000
U      U      0.25000000000000     0.25000000000000     0.75000000000000
U      U      0.75000000000000     0.75000000000000     0.75000000000000
U      U      0.75000000000000     0.25000000000000     0.25000000000000
Be     Be     0.00000000000000     0.00000000000000     0.00000000000000
Be     Be     0.00000000000000     0.50000000000000     0.50000000000000
Be     Be     0.50000000000000     0.00000000000000     0.50000000000000
Be     Be     0.50000000000000     0.50000000000000     0.00000000000000
Be     Be     0.00000000000000     0.00000000000000     0.50000000000000
Be     Be     0.00000000000000     0.50000000000000     0.00000000000000
Be     Be     0.50000000000000     0.00000000000000     0.00000000000000
Be     Be     0.50000000000000     0.50000000000000     0.50000000000000
Be     Be     0.00000000000000     0.11510000000000     0.17650000000000
Be     Be     0.00000000000000     0.61510000000000     0.67650000000000
Be     Be     0.50000000000000     0.11510000000000     0.67650000000000
Be     Be     0.50000000000000     0.61510000000000     0.17650000000000
Be     Be     0.17650000000000     0.00000000000000     0.11510000000000
Be     Be     0.17650000000000     0.50000000000000     0.61510000000000
Be     Be     0.67650000000000     0.00000000000000     0.61510000000000
Be     Be     0.67650000000000     0.50000000000000     0.11510000000000
Be     Be     0.88490000000000     0.17650000000000     0.00000000000000
Be     Be     0.88490000000000     0.67650000000000     0.50000000000000
Be     Be     0.38490000000000     0.17650000000000     0.50000000000000
Be     Be     0.38490000000000     0.67650000000000     0.00000000000000
Be     Be     0.00000000000000     0.88490000000000     0.17650000000000
Be     Be     0.00000000000000     0.38490000000000     0.67650000000000
Be     Be     0.50000000000000     0.88490000000000     0.67650000000000
Be     Be     0.50000000000000     0.38490000000000     0.17650000000000
Be     Be     0.82350000000000     0.00000000000000     0.88490000000000
Be     Be     0.82350000000000     0.50000000000000     0.38490000000000
Be     Be     0.32350000000000     0.00000000000000     0.38490000000000
Be     Be     0.32350000000000     0.50000000000000     0.88490000000000
Be     Be     0.11510000000000     0.82350000000000     0.00000000000000
Be     Be     0.11510000000000     0.32350000000000     0.50000000000000
Be     Be     0.61510000000000     0.82350000000000     0.50000000000000
Be     Be     0.61510000000000     0.32350000000000     0.00000000000000
Be     Be     0.00000000000000     0.11510000000000     0.82350000000000
Be     Be     0.00000000000000     0.61510000000000     0.32350000000000
Be     Be     0.50000000000000     0.11510000000000     0.32350000000000
Be     Be     0.50000000000000     0.61510000000000     0.82350000000000
Be     Be     0.00000000000000     0.82350000000000     0.38490000000000
Be     Be     0.00000000000000     0.32350000000000     0.88490000000000
Be     Be     0.50000000000000     0.82350000000000     0.88490000000000
Be     Be     0.50000000000000     0.32350000000000     0.38490000000000
Be     Be     0.82350000000000     0.11510000000000     0.50000000000000
Be     Be     0.82350000000000     0.61510000000000     0.00000000000000
Be     Be     0.32350000000000     0.11510000000000     0.00000000000000
Be     Be     0.32350000000000     0.61510000000000     0.50000000000000
Be     Be     0.11510000000000     0.00000000000000     0.32350000000000
Be     Be     0.11510000000000     0.50000000000000     0.82350000000000
Be     Be     0.61510000000000     0.00000000000000     0.82350000000000
Be     Be     0.61510000000000     0.50000000000000     0.32350000000000
Be     Be     0.00000000000000     0.17650000000000     0.61510000000000
Be     Be     0.00000000000000     0.67650000000000     0.11510000000000
Be     Be     0.50000000000000     0.17650000000000     0.11510000000000
Be     Be     0.50000000000000     0.67650000000000     0.61510000000000
Be     Be     0.17650000000000     0.88490000000000     0.50000000000000
Be     Be     0.17650000000000     0.38490000000000     0.00000000000000
Be     Be     0.67650000000000     0.88490000000000     0.00000000000000
Be     Be     0.67650000000000     0.38490000000000     0.50000000000000
Be     Be     0.88490000000000     0.00000000000000     0.67650000000000
Be     Be     0.88490000000000     0.50000000000000     0.17650000000000
Be     Be     0.38490000000000     0.00000000000000     0.17650000000000
Be     Be     0.38490000000000     0.50000000000000     0.67650000000000
Be     Be     0.82350000000000     0.88490000000000     0.50000000000000
Be     Be     0.82350000000000     0.38490000000000     0.00000000000000
Be     Be     0.32350000000000     0.88490000000000     0.00000000000000
Be     Be     0.32350000000000     0.38490000000000     0.50000000000000
Be     Be     0.11510000000000     0.00000000000000     0.67650000000000
Be     Be     0.11510000000000     0.50000000000000     0.17650000000000
Be     Be     0.61510000000000     0.00000000000000     0.17650000000000
Be     Be     0.61510000000000     0.50000000000000     0.67650000000000
Be     Be     0.17650000000000     0.11510000000000     0.50000000000000
Be     Be     0.17650000000000     0.61510000000000     0.00000000000000
Be     Be     0.67650000000000     0.11510000000000     0.00000000000000
Be     Be     0.67650000000000     0.61510000000000     0.50000000000000
Be     Be     0.88490000000000     0.00000000000000     0.32350000000000
Be     Be     0.88490000000000     0.50000000000000     0.82350000000000
Be     Be     0.38490000000000     0.00000000000000     0.82350000000000
Be     Be     0.38490000000000     0.50000000000000     0.32350000000000
Be     Be     0.17650000000000     0.00000000000000     0.88490000000000
Be     Be     0.17650000000000     0.50000000000000     0.38490000000000
Be     Be     0.67650000000000     0.00000000000000     0.38490000000000
Be     Be     0.67650000000000     0.50000000000000     0.88490000000000
Be     Be     0.88490000000000     0.82350000000000     0.00000000000000
Be     Be     0.88490000000000     0.32350000000000     0.50000000000000
Be     Be     0.38490000000000     0.82350000000000     0.50000000000000
Be     Be     0.38490000000000     0.32350000000000     0.00000000000000
Be     Be     0.82350000000000     0.00000000000000     0.11510000000000
Be     Be     0.82350000000000     0.50000000000000     0.61510000000000
Be     Be     0.32350000000000     0.00000000000000     0.61510000000000
Be     Be     0.32350000000000     0.50000000000000     0.11510000000000
Be     Be     0.11510000000000     0.17650000000000     0.00000000000000
Be     Be     0.11510000000000     0.67650000000000     0.50000000000000
Be     Be     0.61510000000000     0.17650000000000     0.50000000000000
Be     Be     0.61510000000000     0.67650000000000     0.00000000000000
Be     Be     0.00000000000000     0.88490000000000     0.82350000000000
Be     Be     0.00000000000000     0.38490000000000     0.32350000000000
Be     Be     0.50000000000000     0.88490000000000     0.32350000000000
Be     Be     0.50000000000000     0.38490000000000     0.82350000000000
Be     Be     0.00000000000000     0.17650000000000     0.38490000000000
Be     Be     0.00000000000000     0.67650000000000     0.88490000000000
Be     Be     0.50000000000000     0.17650000000000     0.88490000000000
Be     Be     0.50000000000000     0.67650000000000     0.38490000000000
Be     Be     0.00000000000000     0.82350000000000     0.61510000000000
Be     Be     0.00000000000000     0.32350000000000     0.11510000000000
Be     Be     0.50000000000000     0.82350000000000     0.11510000000000
Be     Be     0.50000000000000     0.32350000000000     0.61510000000000
