data_stdin
_audit_creation_method 'critic2-4f1eba8'
_cell_length_a        15.6800000000
_cell_length_b        15.6800000000
_cell_length_c        15.6800000000
_cell_angle_alpha        90.0000
_cell_angle_beta        90.0000
_cell_angle_gamma        90.0000
_cell_volume          3855.122432
_space_group_crystal_system cubic
_space_group_IT_number 228
_space_group_name_H-M_alt 'Fd-3c'
_space_group_name_Hall 'F 4d 2 3 -1cd'
loop_
_space_group_symop_operation_xyz
  'x,y,z'
  '-3/4-y,-1/4+x,-1/4+z'
  '-x,-y,z'
  '-3/4+y,-1/4-x,-1/4+z'
  'x,-y,-z'
  '-3/4-y,-1/4-x,-1/4-z'
  '-x,y,-z'
  '-3/4+y,-1/4+x,-1/4-z'
  'z,x,y'
  '-3/4+z,-1/4-y,-1/4+x'
  'z,-x,-y'
  '-3/4+z,-1/4+y,-1/4-x'
  '-z,x,-y'
  '-3/4-z,-1/4-y,-1/4-x'
  '-z,-x,y'
  '-3/4-z,-1/4+y,-1/4+x'
  'y,z,x'
  '-3/4+x,-1/4+z,-1/4-y'
  '-y,z,-x'
  '-3/4-x,-1/4+z,-1/4+y'
  '-y,-z,x'
  '-3/4-x,-1/4-z,-1/4-y'
  'y,-z,-x'
  '-3/4+x,-1/4-z,-1/4+y'
  '-3/4-x,-3/4-y,-1/4-z'
  '-1/2+y,-x,-z'
  '-3/4+x,-3/4+y,-1/4-z'
  '-1/2-y,x,-z'
  '-3/4-x,-3/4+y,-1/4+z'
  '-1/2+y,x,z'
  '-3/4+x,-3/4-y,-1/4+z'
  '-1/2-y,-x,z'
  '-3/4-z,-3/4-x,-1/4-y'
  '-1/2-z,y,-x'
  '-3/4-z,-3/4+x,-1/4+y'
  '-1/2-z,-y,x'
  '-3/4+z,-3/4-x,-1/4+y'
  '-1/2+z,y,x'
  '-3/4+z,-3/4+x,-1/4-y'
  '-1/2+z,-y,-x'
  '-3/4-y,-3/4-z,-1/4-x'
  '-1/2-x,-z,y'
  '-3/4+y,-3/4-z,-1/4+x'
  '-1/2+x,-z,-y'
  '-3/4+y,-3/4+z,-1/4-x'
  '-1/2+x,z,y'
  '-3/4-y,-3/4+z,-1/4+x'
  '-1/2-x,z,-y'
  '-1/2+x,-1/2+y,z'
  '-1/4-y,-3/4+x,-1/4+z'
  '-1/2-x,-1/2-y,z'
  '-1/4+y,-3/4-x,-1/4+z'
  '-1/2+x,-1/2-y,-z'
  '-1/4-y,-3/4-x,-1/4-z'
  '-1/2-x,-1/2+y,-z'
  '-1/4+y,-3/4+x,-1/4-z'
  '-1/2+z,-1/2+x,y'
  '-1/4+z,-3/4-y,-1/4+x'
  '-1/2+z,-1/2-x,-y'
  '-1/4+z,-3/4+y,-1/4-x'
  '-1/2-z,-1/2+x,-y'
  '-1/4-z,-3/4-y,-1/4-x'
  '-1/2-z,-1/2-x,y'
  '-1/4-z,-3/4+y,-1/4+x'
  '-1/2+y,-1/2+z,x'
  '-1/4+x,-3/4+z,-1/4-y'
  '-1/2-y,-1/2+z,-x'
  '-1/4-x,-3/4+z,-1/4+y'
  '-1/2-y,-1/2-z,x'
  '-1/4-x,-3/4-z,-1/4-y'
  '-1/2+y,-1/2-z,-x'
  '-1/4+x,-3/4-z,-1/4+y'
  '-1/4-x,-1/4-y,-1/4-z'
  'y,-1/2-x,-z'
  '-1/4+x,-1/4+y,-1/4-z'
  '-y,-1/2+x,-z'
  '-1/4-x,-1/4+y,-1/4+z'
  'y,-1/2+x,z'
  '-1/4+x,-1/4-y,-1/4+z'
  '-y,-1/2-x,z'
  '-1/4-z,-1/4-x,-1/4-y'
  '-z,-1/2+y,-x'
  '-1/4-z,-1/4+x,-1/4+y'
  '-z,-1/2-y,x'
  '-1/4+z,-1/4-x,-1/4+y'
  'z,-1/2+y,x'
  '-1/4+z,-1/4+x,-1/4-y'
  'z,-1/2-y,-x'
  '-1/4-y,-1/4-z,-1/4-x'
  '-x,-1/2-z,y'
  '-1/4+y,-1/4-z,-1/4+x'
  'x,-1/2-z,-y'
  '-1/4+y,-1/4+z,-1/4-x'
  'x,-1/2+z,y'
  '-1/4-y,-1/4+z,-1/4+x'
  '-x,-1/2+z,-y'
  '-1/2+x,y,-1/2+z'
  '-1/4-y,-1/4+x,-3/4+z'
  '-1/2-x,-y,-1/2+z'
  '-1/4+y,-1/4-x,-3/4+z'
  '-1/2+x,-y,-1/2-z'
  '-1/4-y,-1/4-x,-3/4-z'
  '-1/2-x,y,-1/2-z'
  '-1/4+y,-1/4+x,-3/4-z'
  '-1/2+z,x,-1/2+y'
  '-1/4+z,-1/4-y,-3/4+x'
  '-1/2+z,-x,-1/2-y'
  '-1/4+z,-1/4+y,-3/4-x'
  '-1/2-z,x,-1/2-y'
  '-1/4-z,-1/4-y,-3/4-x'
  '-1/2-z,-x,-1/2+y'
  '-1/4-z,-1/4+y,-3/4+x'
  '-1/2+y,z,-1/2+x'
  '-1/4+x,-1/4+z,-3/4-y'
  '-1/2-y,z,-1/2-x'
  '-1/4-x,-1/4+z,-3/4+y'
  '-1/2-y,-z,-1/2+x'
  '-1/4-x,-1/4-z,-3/4-y'
  '-1/2+y,-z,-1/2-x'
  '-1/4+x,-1/4-z,-3/4+y'
  '-1/4-x,-3/4-y,-3/4-z'
  'y,-x,-1/2-z'
  '-1/4+x,-3/4+y,-3/4-z'
  '-y,x,-1/2-z'
  '-1/4-x,-3/4+y,-3/4+z'
  'y,x,-1/2+z'
  '-1/4+x,-3/4-y,-3/4+z'
  '-y,-x,-1/2+z'
  '-1/4-z,-3/4-x,-3/4-y'
  '-z,y,-1/2-x'
  '-1/4-z,-3/4+x,-3/4+y'
  '-z,-y,-1/2+x'
  '-1/4+z,-3/4-x,-3/4+y'
  'z,y,-1/2+x'
  '-1/4+z,-3/4+x,-3/4-y'
  'z,-y,-1/2-x'
  '-1/4-y,-3/4-z,-3/4-x'
  '-x,-z,-1/2+y'
  '-1/4+y,-3/4-z,-3/4+x'
  'x,-z,-1/2-y'
  '-1/4+y,-3/4+z,-3/4-x'
  'x,z,-1/2+y'
  '-1/4-y,-3/4+z,-3/4+x'
  '-x,z,-1/2-y'
  'x,-1/2+y,-1/2+z'
  '-3/4-y,-3/4+x,-3/4+z'
  '-x,-1/2-y,-1/2+z'
  '-3/4+y,-3/4-x,-3/4+z'
  'x,-1/2-y,-1/2-z'
  '-3/4-y,-3/4-x,-3/4-z'
  '-x,-1/2+y,-1/2-z'
  '-3/4+y,-3/4+x,-3/4-z'
  'z,-1/2+x,-1/2+y'
  '-3/4+z,-3/4-y,-3/4+x'
  'z,-1/2-x,-1/2-y'
  '-3/4+z,-3/4+y,-3/4-x'
  '-z,-1/2+x,-1/2-y'
  '-3/4-z,-3/4-y,-3/4-x'
  '-z,-1/2-x,-1/2+y'
  '-3/4-z,-3/4+y,-3/4+x'
  'y,-1/2+z,-1/2+x'
  '-3/4+x,-3/4+z,-3/4-y'
  '-y,-1/2+z,-1/2-x'
  '-3/4-x,-3/4+z,-3/4+y'
  '-y,-1/2-z,-1/2+x'
  '-3/4-x,-3/4-z,-3/4-y'
  'y,-1/2-z,-1/2-x'
  '-3/4+x,-3/4-z,-3/4+y'
  '-3/4-x,-1/4-y,-3/4-z'
  '-1/2+y,-1/2-x,-1/2-z'
  '-3/4+x,-1/4+y,-3/4-z'
  '-1/2-y,-1/2+x,-1/2-z'
  '-3/4-x,-1/4+y,-3/4+z'
  '-1/2+y,-1/2+x,-1/2+z'
  '-3/4+x,-1/4-y,-3/4+z'
  '-1/2-y,-1/2-x,-1/2+z'
  '-3/4-z,-1/4-x,-3/4-y'
  '-1/2-z,-1/2+y,-1/2-x'
  '-3/4-z,-1/4+x,-3/4+y'
  '-1/2-z,-1/2-y,-1/2+x'
  '-3/4+z,-1/4-x,-3/4+y'
  '-1/2+z,-1/2+y,-1/2+x'
  '-3/4+z,-1/4+x,-3/4-y'
  '-1/2+z,-1/2-y,-1/2-x'
  '-3/4-y,-1/4-z,-3/4-x'
  '-1/2-x,-1/2-z,-1/2+y'
  '-3/4+y,-1/4-z,-3/4+x'
  '-1/2+x,-1/2-z,-1/2-y'
  '-3/4+y,-1/4+z,-3/4-x'
  '-1/2+x,-1/2+z,-1/2+y'
  '-3/4-y,-1/4+z,-3/4+x'
  '-1/2-x,-1/2+z,-1/2-y'
loop_
_atom_site_label
_atom_site_type_symbol
_atom_site_fract_x
_atom_site_fract_y
_atom_site_fract_z
Te     Te     0.37500000000000     0.37500000000000     0.37500000000000
H      H      0.50200000000000     0.88100000000000     0.69000000000000
O      O      0.51300000000000     0.91800000000000     0.65300000000000
H      H      0.48900000000000     0.95800000000000     0.65100000000000
