data_stdin
_cell_volume          1503.484707
_symmetry_space_group_name_H-M 'P 1'
_symmetry_Int_Tables_number 1
loop_
_symmetry_equiv_pos_site_id
_symmetry_equiv_pos_as_xyz
1 x,y,z
_cell_length_a        11.4560000000
_cell_length_b        11.4560000000
_cell_length_c        11.4560000000
_cell_angle_alpha        90.0000
_cell_angle_beta        90.0000
_cell_angle_gamma        90.0000
_cell_formula_units_Z 1
loop_
_atom_site_label
_atom_site_type_symbol
_atom_site_fract_x
_atom_site_fract_y
_atom_site_fract_z
Mg     Mg     0.12500000000000     0.00000000000000     0.25000000000000
Mg     Mg     0.62500000000000     0.50000000000000     0.75000000000000
Mg     Mg     0.25000000000000     0.37500000000000     0.50000000000000
Mg     Mg     0.75000000000000     0.87500000000000     0.00000000000000
Mg     Mg     0.00000000000000     0.75000000000000     0.37500000000000
Mg     Mg     0.50000000000000     0.25000000000000     0.87500000000000
Mg     Mg     0.12500000000000     0.50000000000000     0.75000000000000
Mg     Mg     0.62500000000000     0.00000000000000     0.25000000000000
Mg     Mg     0.75000000000000     0.62500000000000     0.50000000000000
Mg     Mg     0.25000000000000     0.12500000000000     0.00000000000000
Mg     Mg     0.00000000000000     0.25000000000000     0.62500000000000
Mg     Mg     0.50000000000000     0.75000000000000     0.12500000000000
Mg     Mg     0.87500000000000     0.50000000000000     0.25000000000000
Mg     Mg     0.37500000000000     0.00000000000000     0.75000000000000
Mg     Mg     0.87500000000000     0.00000000000000     0.75000000000000
Mg     Mg     0.37500000000000     0.50000000000000     0.25000000000000
Mg     Mg     0.75000000000000     0.12500000000000     0.50000000000000
Mg     Mg     0.25000000000000     0.62500000000000     0.00000000000000
Mg     Mg     0.75000000000000     0.37500000000000     0.00000000000000
Mg     Mg     0.25000000000000     0.87500000000000     0.50000000000000
Mg     Mg     0.00000000000000     0.25000000000000     0.12500000000000
Mg     Mg     0.50000000000000     0.75000000000000     0.62500000000000
Mg     Mg     0.50000000000000     0.25000000000000     0.37500000000000
Mg     Mg     0.00000000000000     0.75000000000000     0.87500000000000
Al     Al     0.00000000000000     0.00000000000000     0.00000000000000
Al     Al     0.50000000000000     0.50000000000000     0.50000000000000
Al     Al     0.00000000000000     0.50000000000000     0.50000000000000
Al     Al     0.50000000000000     0.00000000000000     0.00000000000000
Al     Al     0.75000000000000     0.25000000000000     0.75000000000000
Al     Al     0.25000000000000     0.75000000000000     0.25000000000000
Al     Al     0.25000000000000     0.25000000000000     0.25000000000000
Al     Al     0.75000000000000     0.75000000000000     0.75000000000000
Al     Al     0.50000000000000     0.00000000000000     0.50000000000000
Al     Al     0.00000000000000     0.50000000000000     0.00000000000000
Al     Al     0.50000000000000     0.50000000000000     0.00000000000000
Al     Al     0.00000000000000     0.00000000000000     0.50000000000000
Al     Al     0.75000000000000     0.75000000000000     0.25000000000000
Al     Al     0.25000000000000     0.25000000000000     0.75000000000000
Al     Al     0.25000000000000     0.75000000000000     0.75000000000000
Al     Al     0.75000000000000     0.25000000000000     0.25000000000000
Si     Si     0.37500000000000     0.00000000000000     0.25000000000000
Si     Si     0.87500000000000     0.50000000000000     0.75000000000000
Si     Si     0.25000000000000     0.12500000000000     0.50000000000000
Si     Si     0.75000000000000     0.62500000000000     0.00000000000000
Si     Si     0.00000000000000     0.75000000000000     0.12500000000000
Si     Si     0.50000000000000     0.25000000000000     0.62500000000000
Si     Si     0.37500000000000     0.50000000000000     0.75000000000000
Si     Si     0.87500000000000     0.00000000000000     0.25000000000000
Si     Si     0.75000000000000     0.87500000000000     0.50000000000000
Si     Si     0.25000000000000     0.37500000000000     0.00000000000000
Si     Si     0.00000000000000     0.25000000000000     0.87500000000000
Si     Si     0.50000000000000     0.75000000000000     0.37500000000000
Si     Si     0.62500000000000     0.50000000000000     0.25000000000000
Si     Si     0.12500000000000     0.00000000000000     0.75000000000000
Si     Si     0.50000000000000     0.25000000000000     0.12500000000000
Si     Si     0.00000000000000     0.75000000000000     0.62500000000000
Si     Si     0.00000000000000     0.25000000000000     0.37500000000000
Si     Si     0.50000000000000     0.75000000000000     0.87500000000000
Si     Si     0.25000000000000     0.62500000000000     0.50000000000000
Si     Si     0.75000000000000     0.12500000000000     0.00000000000000
Si     Si     0.25000000000000     0.87500000000000     0.00000000000000
Si     Si     0.75000000000000     0.37500000000000     0.50000000000000
Si     Si     0.12500000000000     0.50000000000000     0.25000000000000
Si     Si     0.62500000000000     0.00000000000000     0.75000000000000
O      O      0.03280000000000     0.05020000000000     0.65340000000000
O      O      0.53280000000000     0.55020000000000     0.15340000000000
O      O      0.65340000000000     0.46720000000000     0.55020000000000
O      O      0.15340000000000     0.96720000000000     0.05020000000000
O      O      0.94980000000000     0.15340000000000     0.46720000000000
O      O      0.44980000000000     0.65340000000000     0.96720000000000
O      O      0.03280000000000     0.44980000000000     0.15340000000000
O      O      0.53280000000000     0.94980000000000     0.65340000000000
O      O      0.34660000000000     0.53280000000000     0.44980000000000
O      O      0.84660000000000     0.03280000000000     0.94980000000000
O      O      0.05020000000000     0.84660000000000     0.53280000000000
O      O      0.55020000000000     0.34660000000000     0.03280000000000
O      O      0.96720000000000     0.55020000000000     0.84660000000000
O      O      0.46720000000000     0.05020000000000     0.34660000000000
O      O      0.78280000000000     0.59660000000000     0.69980000000000
O      O      0.28280000000000     0.09660000000000     0.19980000000000
O      O      0.09660000000000     0.30020000000000     0.78280000000000
O      O      0.59660000000000     0.80020000000000     0.28280000000000
O      O      0.80020000000000     0.21720000000000     0.09660000000000
O      O      0.30020000000000     0.71720000000000     0.59660000000000
O      O      0.71720000000000     0.90340000000000     0.80020000000000
O      O      0.21720000000000     0.40340000000000     0.30020000000000
O      O      0.40340000000000     0.19980000000000     0.71720000000000
O      O      0.90340000000000     0.69980000000000     0.21720000000000
O      O      0.69980000000000     0.28280000000000     0.40340000000000
O      O      0.19980000000000     0.78280000000000     0.90340000000000
O      O      0.28280000000000     0.90340000000000     0.30020000000000
O      O      0.78280000000000     0.40340000000000     0.80020000000000
O      O      0.59660000000000     0.19980000000000     0.21720000000000
O      O      0.09660000000000     0.69980000000000     0.71720000000000
O      O      0.30020000000000     0.28280000000000     0.90340000000000
O      O      0.80020000000000     0.78280000000000     0.40340000000000
O      O      0.21720000000000     0.59660000000000     0.19980000000000
O      O      0.71720000000000     0.09660000000000     0.69980000000000
O      O      0.90340000000000     0.30020000000000     0.28280000000000
O      O      0.40340000000000     0.80020000000000     0.78280000000000
O      O      0.19980000000000     0.21720000000000     0.59660000000000
O      O      0.69980000000000     0.71720000000000     0.09660000000000
O      O      0.15340000000000     0.03280000000000     0.44980000000000
O      O      0.65340000000000     0.53280000000000     0.94980000000000
O      O      0.44980000000000     0.34660000000000     0.53280000000000
O      O      0.94980000000000     0.84660000000000     0.03280000000000
O      O      0.53280000000000     0.05020000000000     0.84660000000000
O      O      0.03280000000000     0.55020000000000     0.34660000000000
O      O      0.84660000000000     0.96720000000000     0.55020000000000
O      O      0.34660000000000     0.46720000000000     0.05020000000000
O      O      0.55020000000000     0.65340000000000     0.46720000000000
O      O      0.05020000000000     0.15340000000000     0.96720000000000
O      O      0.46720000000000     0.94980000000000     0.15340000000000
O      O      0.96720000000000     0.44980000000000     0.65340000000000
O      O      0.84660000000000     0.53280000000000     0.05020000000000
O      O      0.34660000000000     0.03280000000000     0.55020000000000
O      O      0.55020000000000     0.84660000000000     0.96720000000000
O      O      0.05020000000000     0.34660000000000     0.46720000000000
O      O      0.46720000000000     0.55020000000000     0.65340000000000
O      O      0.96720000000000     0.05020000000000     0.15340000000000
O      O      0.15340000000000     0.46720000000000     0.94980000000000
O      O      0.65340000000000     0.96720000000000     0.44980000000000
O      O      0.44980000000000     0.15340000000000     0.03280000000000
O      O      0.94980000000000     0.65340000000000     0.53280000000000
O      O      0.53280000000000     0.44980000000000     0.34660000000000
O      O      0.03280000000000     0.94980000000000     0.84660000000000
O      O      0.71720000000000     0.40340000000000     0.19980000000000
O      O      0.21720000000000     0.90340000000000     0.69980000000000
O      O      0.40340000000000     0.69980000000000     0.28280000000000
O      O      0.90340000000000     0.19980000000000     0.78280000000000
O      O      0.69980000000000     0.78280000000000     0.59660000000000
O      O      0.19980000000000     0.28280000000000     0.09660000000000
O      O      0.78280000000000     0.09660000000000     0.30020000000000
O      O      0.28280000000000     0.59660000000000     0.80020000000000
O      O      0.09660000000000     0.80020000000000     0.21720000000000
O      O      0.59660000000000     0.30020000000000     0.71720000000000
O      O      0.80020000000000     0.71720000000000     0.90340000000000
O      O      0.30020000000000     0.21720000000000     0.40340000000000
O      O      0.21720000000000     0.09660000000000     0.80020000000000
O      O      0.71720000000000     0.59660000000000     0.30020000000000
O      O      0.90340000000000     0.80020000000000     0.71720000000000
O      O      0.40340000000000     0.30020000000000     0.21720000000000
O      O      0.19980000000000     0.71720000000000     0.40340000000000
O      O      0.69980000000000     0.21720000000000     0.90340000000000
O      O      0.28280000000000     0.40340000000000     0.69980000000000
O      O      0.78280000000000     0.90340000000000     0.19980000000000
O      O      0.59660000000000     0.69980000000000     0.78280000000000
O      O      0.09660000000000     0.19980000000000     0.28280000000000
O      O      0.30020000000000     0.78280000000000     0.09660000000000
O      O      0.80020000000000     0.28280000000000     0.59660000000000
O      O      0.34660000000000     0.96720000000000     0.94980000000000
O      O      0.84660000000000     0.46720000000000     0.44980000000000
O      O      0.05020000000000     0.65340000000000     0.03280000000000
O      O      0.55020000000000     0.15340000000000     0.53280000000000
O      O      0.96720000000000     0.94980000000000     0.34660000000000
O      O      0.46720000000000     0.44980000000000     0.84660000000000
O      O      0.65340000000000     0.03280000000000     0.05020000000000
O      O      0.15340000000000     0.53280000000000     0.55020000000000
O      O      0.94980000000000     0.34660000000000     0.96720000000000
O      O      0.44980000000000     0.84660000000000     0.46720000000000
