
#######################################################################
#
#                 Cambridge Crystallographic Data Centre
#                                CCDC 
#
#######################################################################
#
# If this CIF has been generated from an entry in the Cambridge 
# Structural Database, then it will include bibliographic, chemical, 
# crystal, experimental, refinement or atomic coordinate data resulting 
# from the CCDC's data processing and validation procedures.
#
#######################################################################

data_PROGST10
_symmetry_cell_setting           orthorhombic
_symmetry_space_group_name_H-M   'P 21 21 21'
_symmetry_Int_Tables_number      19
_space_group_name_Hall           'P 2ac 2ab'
loop_
_symmetry_equiv_pos_site_id
_symmetry_equiv_pos_as_xyz
1 x,y,z
2 1/2+x,1/2-y,-z
3 -x,1/2+y,1/2-z
4 1/2-x,-y,1/2+z
_cell_length_a                   12.559(2)
_cell_length_b                   13.798(2)
_cell_length_c                   10.340(2)
_cell_angle_alpha                90
_cell_angle_beta                 90
_cell_angle_gamma                90
_cell_volume                     1791.81
loop_
_atom_site_label
_atom_site_type_symbol
_atom_site_fract_x
_atom_site_fract_y
_atom_site_fract_z
C1 C -0.88550 -0.52400 0.50090
C2 C -0.79290 -0.59730 0.50300
C3 C -0.65550 -0.46410 0.55990
C4 C -0.55950 -0.40390 0.51540
C5 C -0.46500 -0.46910 0.48150
C6 C -0.50320 -0.54410 0.38110
C7 C -0.40130 -0.59060 0.33170
C8 C -0.32200 -0.50490 0.32670
C9 C -0.37310 -0.42160 0.40260
C10 C -0.41880 -0.51710 0.60420
C11 C -0.78130 -0.64410 0.63760
C12 C -0.99560 -0.57160 0.50620
C13 C -0.29380 -0.36060 0.48150
C14 C -0.33260 -0.27030 0.54280
C15 C -1.00860 -0.64650 0.40240
C16 C -0.91310 -0.69530 0.35880
C17 C -0.81500 -0.67810 0.40610
C18 C -0.72310 -0.74120 0.36880
C19 C -0.62660 -0.68200 0.32570
C20 C -0.59430 -0.60890 0.42830
C21 C -0.68900 -0.54250 0.46220
H1 H -0.86750 -0.48640 0.40510
H2 H -0.63750 -0.49280 0.64630
H3 H -0.71380 -0.41890 0.57950
H4 H -0.86760 -0.47190 0.58530
H5 H -0.52320 -0.36370 0.43630
H6 H -0.53730 -0.35420 0.58160
H7 H -0.53110 -0.50660 0.30890
H8 H -0.41150 -0.62670 0.24450
H9 H -0.36560 -0.64260 0.39090
H10 H -0.27550 -0.52930 0.36830
H11 H -0.30710 -0.49400 0.21180
H12 H -0.38270 -0.37450 0.33820
H13 H -0.47530 -0.55400 0.64580
H14 H -0.35800 -0.56010 0.58710
H15 H -0.39450 -0.46050 0.66010
H16 H -0.71350 -0.69080 0.64110
H17 H -0.84050 -0.67880 0.67240
H18 H -0.76850 -0.59380 0.71420
H19 H -1.01260 -0.60710 0.58590
H20 H -0.27010 -0.22450 0.56650
H21 H -0.39400 -0.24090 0.48980
H22 H -0.35810 -0.28900 0.61610
H23 H -1.04470 -0.51670 0.51040
H24 H -0.92570 -0.75350 0.29870
H25 H -0.70190 -0.77790 0.44930
H26 H -0.74130 -0.77850 0.30150
H27 H -0.64630 -0.64820 0.23730
H28 H -0.56160 -0.73210 0.29970
H29 H -0.57080 -0.64340 0.50030
H30 H -0.70710 -0.50660 0.37820
O1 O -0.20160 -0.38330 0.49090
O2 O -1.09580 -0.66740 0.35950

#END
