
#######################################################################
#
#                 Cambridge Crystallographic Data Centre
#                                CCDC 
#
#######################################################################
#
# If this CIF has been generated from an entry in the Cambridge 
# Structural Database, then it will include bibliographic, chemical, 
# crystal, experimental, refinement or atomic coordinate data resulting 
# from the CCDC's data processing and validation procedures.
#
#######################################################################

data_NARSOR
_symmetry_cell_setting           orthorhombic
_symmetry_space_group_name_H-M   'P b c a'
_symmetry_Int_Tables_number      61
_space_group_name_Hall           '-P 2ac 2ab'
loop_
_symmetry_equiv_pos_site_id
_symmetry_equiv_pos_as_xyz
1 x,y,z
2 1/2-x,-y,1/2+z
3 -x,1/2+y,1/2-z
4 1/2+x,1/2-y,-z
5 -x,-y,-z
6 1/2+x,y,1/2-z
7 x,1/2-y,1/2+z
8 1/2-x,1/2+y,z
_cell_length_a                   7.20370(19)
_cell_length_b                   11.4142(3)
_cell_length_c                   23.2130(7)
_cell_angle_alpha                90
_cell_angle_beta                 90
_cell_angle_gamma                90
_cell_volume                     1908.68
loop_
_atom_site_label
_atom_site_type_symbol
_atom_site_fract_x
_atom_site_fract_y
_atom_site_fract_z
_atom_site_U_iso_or_equiv
_atom_site_thermal_displace_type
S1 S 0.23385(10) 0.45570(6) 0.01939(3) 0.0534 Uani
S2 S 0.36648(9) 0.54491(5) 0.08334(3) 0.0512 Uani
N1 N 0.4971(3) 0.43900(18) 0.10715(9) 0.0457 Uani
C1 C 0.4862(3) 0.3378(2) 0.08217(10) 0.0408 Uani
C2 C 0.3551(3) 0.3206(2) 0.03364(10) 0.0438 Uani
O1 O 0.3269(3) 0.23322(16) 0.00591(8) 0.0588 Uani
C3 C 0.5978(3) 0.2370(2) 0.10493(10) 0.0436 Uani
O2 O 0.5408(3) 0.13790(16) 0.09677(10) 0.0644 Uani
C4 C 0.7707(3) 0.2587(2) 0.13862(10) 0.0415 Uani
C5 C 0.8327(4) 0.1689(2) 0.17468(11) 0.0495 Uani
H1 H 0.765(4) 0.100(3) 0.1768(13) 0.0590 Uiso
C6 C 0.9924(5) 0.1840(3) 0.20705(13) 0.0642 Uani
H2 H 1.023(5) 0.126(3) 0.2313(15) 0.0770 Uiso
C7 C 1.0898(5) 0.2874(3) 0.20399(14) 0.0669 Uani
H3 H 1.203(5) 0.300(3) 0.2259(15) 0.0800 Uiso
C8 C 1.0325(4) 0.3755(3) 0.16771(14) 0.0620 Uani
H4 H 1.101(5) 0.454(3) 0.1663(15) 0.0740 Uiso
C9 C 0.8730(4) 0.3614(2) 0.13461(12) 0.0498 Uani
H5 H 0.840(4) 0.426(3) 0.1092(13) 0.0600 Uiso
loop_
_atom_site_aniso_label
_atom_site_aniso_U_11
_atom_site_aniso_U_22
_atom_site_aniso_U_33
_atom_site_aniso_U_23
_atom_site_aniso_U_13
_atom_site_aniso_U_12
S1 0.0550(4) 0.0480(4) 0.0573(4) -0.0046(3) -0.0142(3) 0.0081(3)
S2 0.0512(4) 0.0393(3) 0.0632(4) -0.0074(3) -0.0099(3) 0.0076(3)
N1 0.0427(10) 0.0411(11) 0.0532(11) -0.0025(9) -0.0054(9) 0.0014(8)
C1 0.0393(12) 0.0372(11) 0.0458(12) -0.0010(9) 0.0020(9) -0.0010(9)
C2 0.0448(13) 0.0400(12) 0.0465(12) 0.0007(10) -0.0001(10) -0.0005(10)
O1 0.0753(13) 0.0431(10) 0.0580(11) -0.0074(8) -0.0132(10) -0.0005(9)
C3 0.0452(13) 0.0391(12) 0.0465(12) 0.0017(10) 0.0042(10) 0.0026(10)
O2 0.0671(13) 0.0391(10) 0.0871(14) 0.0046(9) -0.0165(11) -0.0046(9)
C4 0.0408(12) 0.0436(12) 0.0400(11) 0.0003(9) 0.0038(9) 0.0075(10)
C5 0.0624(16) 0.0447(13) 0.0414(12) 0.0022(10) 0.0032(11) 0.0094(12)
C6 0.0731(19) 0.0686(19) 0.0509(15) 0.0100(14) -0.0082(14) 0.0211(16)
C7 0.0567(17) 0.082(2) 0.0621(17) 0.0062(15) -0.0144(14) 0.0045(16)
C8 0.0507(16) 0.0672(18) 0.0682(17) 0.0090(15) -0.0080(13) -0.0071(14)
C9 0.0450(14) 0.0493(14) 0.0550(14) 0.0095(11) -0.0023(11) 0.0002(11)

#END
