
#######################################################################
#
#                 Cambridge Crystallographic Data Centre
#                                CCDC 
#
#######################################################################
#
# If this CIF has been generated from an entry in the Cambridge 
# Structural Database, then it will include bibliographic, chemical, 
# crystal, experimental, refinement or atomic coordinate data resulting 
# from the CCDC's data processing and validation procedures.
#
#######################################################################

data_NASCIW
_symmetry_cell_setting           orthorhombic
_symmetry_space_group_name_H-M   'P b c a'
_symmetry_Int_Tables_number      61
_space_group_name_Hall           '-P 2ac 2ab'
loop_
_symmetry_equiv_pos_site_id
_symmetry_equiv_pos_as_xyz
1 x,y,z
2 1/2-x,-y,1/2+z
3 -x,1/2+y,1/2-z
4 1/2+x,1/2-y,-z
5 -x,-y,-z
6 1/2+x,y,1/2-z
7 x,1/2-y,1/2+z
8 1/2-x,1/2+y,z
_cell_length_a                   7.17006(6)
_cell_length_b                   11.34032(10)
_cell_length_c                   22.9044(2)
_cell_angle_alpha                90
_cell_angle_beta                 90
_cell_angle_gamma                90
_cell_volume                     1862.37
loop_
_atom_site_label
_atom_site_type_symbol
_atom_site_fract_x
_atom_site_fract_y
_atom_site_fract_z
_atom_site_U_iso_or_equiv
_atom_site_thermal_displace_type
S1 S 0.23202(6) 0.45767(4) 0.01850(2) 0.0323 Uani
S2 S 0.36592(6) 0.54743(3) 0.08350(2) 0.0312 Uani
N1 N 0.4971(2) 0.44086(12) 0.10766(7) 0.0293 Uani
C1 C 0.4858(2) 0.33878(14) 0.08222(7) 0.0269 Uani
C2 C 0.3535(2) 0.32171(15) 0.03304(7) 0.0288 Uani
O1 O 0.32365(19) 0.23330(11) 0.00487(6) 0.0355 Uani
C3 C 0.5984(2) 0.23697(15) 0.10499(7) 0.0286 Uani
O2 O 0.54143(19) 0.13708(10) 0.09680(6) 0.0372 Uani
C4 C 0.7723(2) 0.25936(15) 0.13874(7) 0.0276 Uani
C5 C 0.8366(3) 0.16854(16) 0.17512(7) 0.0306 Uani
H1 H 0.766(3) 0.098(2) 0.1771(10) 0.0370 Uiso
C6 C 0.9968(3) 0.18376(17) 0.20797(8) 0.0368 Uani
H2 H 1.034(3) 0.125(2) 0.2332(11) 0.0440 Uiso
C7 C 1.0951(3) 0.28907(18) 0.20506(9) 0.0397 Uani
H3 H 1.207(4) 0.300(2) 0.2273(11) 0.0480 Uiso
C8 C 1.0342(3) 0.37837(18) 0.16841(9) 0.0376 Uani
H4 H 1.100(3) 0.452(2) 0.1669(11) 0.0450 Uiso
C9 C 0.8744(2) 0.36391(16) 0.13498(8) 0.0317 Uani
H5 H 0.839(3) 0.425(2) 0.1095(10) 0.0380 Uiso
loop_
_atom_site_aniso_label
_atom_site_aniso_U_11
_atom_site_aniso_U_22
_atom_site_aniso_U_33
_atom_site_aniso_U_23
_atom_site_aniso_U_13
_atom_site_aniso_U_12
S1 0.0343(3) 0.0247(3) 0.0378(3) -0.00206(15) -0.00709(17) 0.00415(15)
S2 0.0325(3) 0.0210(2) 0.0400(3) -0.00368(15) -0.00502(16) 0.00363(14)
N1 0.0290(7) 0.0225(7) 0.0365(7) -0.0009(5) -0.0014(6) 0.0009(5)
C1 0.0281(8) 0.0200(7) 0.0326(8) 0.0002(6) 0.0016(6) -0.0008(6)
C2 0.0299(8) 0.0221(8) 0.0343(8) 0.0011(6) 0.0006(6) 0.0008(6)
O1 0.0454(7) 0.0238(6) 0.0372(6) -0.0039(5) -0.0056(6) -0.0009(5)
C3 0.0310(8) 0.0230(8) 0.0317(8) 0.0007(6) 0.0029(6) 0.0003(7)
O2 0.0398(7) 0.0220(6) 0.0498(7) 0.0026(5) -0.0066(6) -0.0027(5)
C4 0.0294(8) 0.0243(8) 0.0290(7) -0.0006(6) 0.0025(6) 0.0048(6)
C5 0.0362(8) 0.0244(8) 0.0311(8) 0.0002(6) 0.0033(7) 0.0046(7)
C6 0.0416(10) 0.0338(9) 0.0351(9) 0.0047(7) -0.0027(7) 0.0091(8)
C7 0.0351(9) 0.0428(11) 0.0411(10) 0.0024(8) -0.0074(8) 0.0037(8)
C8 0.0336(9) 0.0355(9) 0.0437(9) 0.0045(8) -0.0023(8) -0.0042(8)
C9 0.0314(8) 0.0281(8) 0.0355(8) 0.0046(7) -0.0001(7) 0.0007(7)

#END
